data_image0
_chemical_formula_structural       C32N8H16Co
_chemical_formula_sum              "C32 N8 H16 Co1"
_cell_length_a       22.0194
_cell_length_b       22.0194
_cell_length_c       15
_cell_angle_alpha    90
_cell_angle_beta     90
_cell_angle_gamma    90

_space_group_name_H-M_alt    "P 1"
_space_group_IT_number       1

loop_
  _space_group_symop_operation_xyz
  'x, y, z'

loop_
  _atom_site_type_symbol
  _atom_site_label
  _atom_site_symmetry_multiplicity
  _atom_site_fract_x
  _atom_site_fract_y
  _atom_site_fract_z
  _atom_site_occupancy
  C   C1        1.0  0.36422  0.63525  0.50543  1.0000
  C   C2        1.0  0.41643  0.67250  0.50530  1.0000
  C   C3        1.0  0.46870  0.63167  0.50590  1.0000
  C   C4        1.0  0.38580  0.57255  0.50607  1.0000
  C   C5        1.0  0.36474  0.36425  0.50379  1.0000
  C   C6        1.0  0.32753  0.41648  0.50390  1.0000
  C   C7        1.0  0.36836  0.46872  0.50553  1.0000
  C   C8        1.0  0.42745  0.38580  0.50544  1.0000
  C   C9        1.0  0.63577  0.36476  0.50530  1.0000
  C   C10       1.0  0.58355  0.32751  0.50519  1.0000
  C   C11       1.0  0.53128  0.36834  0.50577  1.0000
  C   C12       1.0  0.61419  0.42746  0.50591  1.0000
  C   C13       1.0  0.63525  0.63577  0.50384  1.0000
  C   C14       1.0  0.67246  0.58354  0.50384  1.0000
  C   C15       1.0  0.63163  0.53129  0.50545  1.0000
  C   C16       1.0  0.57254  0.61421  0.50550  1.0000
  C   C17       1.0  0.33964  0.30571  0.50130  1.0000
  C   C18       1.0  0.27614  0.30100  0.49857  1.0000
  C   C19       1.0  0.23880  0.35340  0.49868  1.0000
  C   C20       1.0  0.26400  0.41188  0.50149  1.0000
  C   C21       1.0  0.30565  0.66033  0.50448  1.0000
  C   C22       1.0  0.30088  0.72385  0.50346  1.0000
  C   C23       1.0  0.35326  0.76122  0.50341  1.0000
  C   C24       1.0  0.41177  0.73604  0.50436  1.0000
  C   C25       1.0  0.66035  0.69430  0.50138  1.0000
  C   C26       1.0  0.72386  0.69901  0.49860  1.0000
  C   C27       1.0  0.76119  0.64660  0.49860  1.0000
  C   C28       1.0  0.73599  0.58813  0.50136  1.0000
  C   C29       1.0  0.69434  0.33968  0.50444  1.0000
  C   C30       1.0  0.69911  0.27616  0.50355  1.0000
  C   C31       1.0  0.64673  0.23880  0.50351  1.0000
  C   C32       1.0  0.58822  0.26397  0.50435  1.0000
  N   N1        1.0  0.44908  0.57148  0.50639  1.0000
  N   N2        1.0  0.42853  0.44908  0.50625  1.0000
  N   N3        1.0  0.34809  0.52550  0.50572  1.0000
  N   N4        1.0  0.55091  0.42852  0.50626  1.0000
  N   N5        1.0  0.47450  0.34808  0.50544  1.0000
  N   N6        1.0  0.57146  0.55093  0.50624  1.0000
  N   N7        1.0  0.52549  0.65193  0.50557  1.0000
  N   N8        1.0  0.65190  0.47451  0.50556  1.0000
  H   H1        1.0  0.45236  0.76445  0.50423  1.0000
  H   H2        1.0  0.26557  0.63120  0.50444  1.0000
  H   H3        1.0  0.23563  0.45249  0.50154  1.0000
  H   H4        1.0  0.36875  0.26561  0.50111  1.0000
  H   H5        1.0  0.54763  0.23556  0.50425  1.0000
  H   H6        1.0  0.73442  0.36880  0.50440  1.0000
  H   H7        1.0  0.76435  0.54751  0.50133  1.0000
  H   H8        1.0  0.63125  0.73440  0.50128  1.0000
  H   H9        1.0  0.81046  0.65201  0.49619  1.0000
  H   H10       1.0  0.74507  0.74381  0.49616  1.0000
  H   H11       1.0  0.74393  0.25494  0.50278  1.0000
  H   H12       1.0  0.65218  0.18950  0.50272  1.0000
  H   H13       1.0  0.25493  0.25619  0.49609  1.0000
  H   H14       1.0  0.18953  0.34800  0.49631  1.0000
  H   H15       1.0  0.25606  0.74506  0.50261  1.0000
  H   H16       1.0  0.34781  0.81051  0.50251  1.0000
  Co  Co1       1.0  0.50000  0.50000  0.50661  1.0000
