data_image0
_chemical_formula_structural       C32N8H16CoO2C5H5
_chemical_formula_sum              "C37 N8 H21 Co1 O2"
_cell_length_a       22.0194
_cell_length_b       22.0194
_cell_length_c       15
_cell_angle_alpha    90
_cell_angle_beta     90
_cell_angle_gamma    90

_space_group_name_H-M_alt    "P 1"
_space_group_IT_number       1

loop_
  _space_group_symop_operation_xyz
  'x, y, z'

loop_
  _atom_site_type_symbol
  _atom_site_label
  _atom_site_symmetry_multiplicity
  _atom_site_fract_x
  _atom_site_fract_y
  _atom_site_fract_z
  _atom_site_occupancy
  C   C1        1.0  0.36485  0.63797  0.49690  1.0000
  C   C2        1.0  0.41719  0.67511  0.49739  1.0000
  C   C3        1.0  0.46939  0.63422  0.49661  1.0000
  C   C4        1.0  0.38635  0.57522  0.49628  1.0000
  C   C5        1.0  0.36578  0.36675  0.49924  1.0000
  C   C6        1.0  0.32843  0.41890  0.50048  1.0000
  C   C7        1.0  0.36916  0.47121  0.49720  1.0000
  C   C8        1.0  0.42835  0.38848  0.49495  1.0000
  C   C9        1.0  0.63622  0.36761  0.47774  1.0000
  C   C10       1.0  0.58414  0.33031  0.48162  1.0000
  C   C11       1.0  0.53197  0.37116  0.48633  1.0000
  C   C12       1.0  0.61458  0.43026  0.48089  1.0000
  C   C13       1.0  0.63603  0.63824  0.49568  1.0000
  C   C14       1.0  0.67316  0.58606  0.49122  1.0000
  C   C15       1.0  0.63214  0.53394  0.48797  1.0000
  C   C16       1.0  0.57322  0.61666  0.49503  1.0000
  C   C17       1.0  0.34081  0.30814  0.50118  1.0000
  C   C18       1.0  0.27732  0.30322  0.50428  1.0000
  C   C19       1.0  0.23988  0.35552  0.50544  1.0000
  C   C20       1.0  0.26492  0.41409  0.50357  1.0000
  C   C21       1.0  0.30634  0.66328  0.49717  1.0000
  C   C22       1.0  0.30171  0.72681  0.49776  1.0000
  C   C23       1.0  0.35419  0.76403  0.49838  1.0000
  C   C24       1.0  0.41262  0.73867  0.49824  1.0000
  C   C25       1.0  0.66133  0.69663  0.49946  1.0000
  C   C26       1.0  0.72491  0.70129  0.49899  1.0000
  C   C27       1.0  0.76212  0.64894  0.49453  1.0000
  C   C28       1.0  0.73670  0.59056  0.49037  1.0000
  C   C29       1.0  0.69475  0.34261  0.47365  1.0000
  C   C30       1.0  0.69968  0.27907  0.47348  1.0000
  C   C31       1.0  0.64742  0.24165  0.47720  1.0000
  C   C32       1.0  0.58893  0.26679  0.48128  1.0000
  N   N1        1.0  0.44977  0.57398  0.49529  1.0000
  N   N2        1.0  0.42941  0.45176  0.49388  1.0000
  N   N3        1.0  0.34876  0.52802  0.49813  1.0000
  N   N4        1.0  0.55142  0.43142  0.48531  1.0000
  N   N5        1.0  0.47539  0.35079  0.49179  1.0000
  N   N6        1.0  0.57202  0.55342  0.49097  1.0000
  N   N7        1.0  0.52623  0.65438  0.49745  1.0000
  N   N8        1.0  0.65240  0.47723  0.48273  1.0000
  H   H1        1.0  0.45331  0.76693  0.49864  1.0000
  H   H2        1.0  0.26621  0.63422  0.49658  1.0000
  H   H3        1.0  0.23645  0.45464  0.50406  1.0000
  H   H4        1.0  0.37007  0.26819  0.49995  1.0000
  H   H5        1.0  0.54838  0.23838  0.48416  1.0000
  H   H6        1.0  0.73466  0.37191  0.47073  1.0000
  H   H7        1.0  0.76495  0.54993  0.48654  1.0000
  H   H8        1.0  0.63226  0.73669  0.50260  1.0000
  H   H9        1.0  0.81143  0.65430  0.49410  1.0000
  H   H10       1.0  0.74618  0.74606  0.50192  1.0000
  H   H11       1.0  0.74451  0.25795  0.47010  1.0000
  H   H12       1.0  0.65293  0.19236  0.47663  1.0000
  H   H13       1.0  0.25619  0.25834  0.50557  1.0000
  H   H14       1.0  0.19060  0.34995  0.50755  1.0000
  H   H15       1.0  0.25691  0.74812  0.49760  1.0000
  H   H16       1.0  0.34883  0.81335  0.49873  1.0000
  Co  Co1       1.0  0.50086  0.50258  0.49273  1.0000
  O   O1        1.0  0.52328  0.36236  0.76019  1.0000
  O   O2        1.0  0.48957  0.50807  0.65953  1.0000
  C   C33       1.0  0.53183  0.41857  0.71855  1.0000
  C   C34       1.0  0.59327  0.42510  0.69485  1.0000
  C   C35       1.0  0.62283  0.37087  0.72179  1.0000
  C   C36       1.0  0.57923  0.33458  0.76111  1.0000
  C   C37       1.0  0.48104  0.45509  0.70527  1.0000
  H   H17       1.0  0.61271  0.46392  0.66081  1.0000
  H   H18       1.0  0.67038  0.35936  0.71269  1.0000
  H   H19       1.0  0.58043  0.28990  0.79153  1.0000
  H   H20       1.0  0.43512  0.44049  0.72175  1.0000
  H   H21       1.0  0.45088  0.52833  0.64865  1.0000
