data_image0
_chemical_formula_structural       C32N8H16CoO2C5H4
_chemical_formula_sum              "C37 N8 H20 Co1 O2"
_cell_length_a       22.0194
_cell_length_b       22.0194
_cell_length_c       15
_cell_angle_alpha    90
_cell_angle_beta     90
_cell_angle_gamma    90

_space_group_name_H-M_alt    "P 1"
_space_group_IT_number       1

loop_
  _space_group_symop_operation_xyz
  'x, y, z'

loop_
  _atom_site_type_symbol
  _atom_site_label
  _atom_site_symmetry_multiplicity
  _atom_site_fract_x
  _atom_site_fract_y
  _atom_site_fract_z
  _atom_site_occupancy
  C   C1        1.0  0.36513  0.63790  0.49527  1.0000
  C   C2        1.0  0.41735  0.67509  0.49637  1.0000
  C   C3        1.0  0.46963  0.63411  0.49516  1.0000
  C   C4        1.0  0.38684  0.57512  0.49368  1.0000
  C   C5        1.0  0.36579  0.36672  0.49733  1.0000
  C   C6        1.0  0.32858  0.41898  0.49822  1.0000
  C   C7        1.0  0.36948  0.47124  0.49448  1.0000
  C   C8        1.0  0.42844  0.38838  0.49285  1.0000
  C   C9        1.0  0.63646  0.36765  0.47732  1.0000
  C   C10       1.0  0.58438  0.33027  0.48118  1.0000
  C   C11       1.0  0.53220  0.37103  0.48599  1.0000
  C   C12       1.0  0.61482  0.43023  0.48072  1.0000
  C   C13       1.0  0.63631  0.63832  0.49586  1.0000
  C   C14       1.0  0.67347  0.58610  0.49166  1.0000
  C   C15       1.0  0.63244  0.53399  0.48862  1.0000
  C   C16       1.0  0.57350  0.61677  0.49534  1.0000
  C   C17       1.0  0.34076  0.30818  0.50015  1.0000
  C   C18       1.0  0.27727  0.30344  0.50422  1.0000
  C   C19       1.0  0.23997  0.35583  0.50525  1.0000
  C   C20       1.0  0.26511  0.41434  0.50226  1.0000
  C   C21       1.0  0.30662  0.66303  0.49632  1.0000
  C   C22       1.0  0.30191  0.72659  0.49838  1.0000
  C   C23       1.0  0.35429  0.76387  0.49942  1.0000
  C   C24       1.0  0.41278  0.73858  0.49845  1.0000
  C   C25       1.0  0.66164  0.69674  0.49904  1.0000
  C   C26       1.0  0.72520  0.70139  0.49833  1.0000
  C   C27       1.0  0.76242  0.64901  0.49423  1.0000
  C   C28       1.0  0.73702  0.59062  0.49064  1.0000
  C   C29       1.0  0.69504  0.34270  0.47319  1.0000
  C   C30       1.0  0.70007  0.27920  0.47320  1.0000
  C   C31       1.0  0.64782  0.24171  0.47714  1.0000
  C   C32       1.0  0.58930  0.26674  0.48102  1.0000
  N   N1        1.0  0.44998  0.57416  0.49253  1.0000
  N   N2        1.0  0.42941  0.45157  0.49110  1.0000
  N   N3        1.0  0.34919  0.52806  0.49499  1.0000
  N   N4        1.0  0.55171  0.43120  0.48557  1.0000
  N   N5        1.0  0.47551  0.35068  0.49077  1.0000
  N   N6        1.0  0.57237  0.55363  0.49175  1.0000
  N   N7        1.0  0.52640  0.65445  0.49709  1.0000
  N   N8        1.0  0.65263  0.47726  0.48296  1.0000
  H   H1        1.0  0.45345  0.76685  0.49932  1.0000
  H   H2        1.0  0.26653  0.63392  0.49547  1.0000
  H   H3        1.0  0.23680  0.45499  0.50284  1.0000
  H   H4        1.0  0.36993  0.26813  0.49910  1.0000
  H   H5        1.0  0.54879  0.23825  0.48406  1.0000
  H   H6        1.0  0.73488  0.37208  0.47003  1.0000
  H   H7        1.0  0.76528  0.55001  0.48700  1.0000
  H   H8        1.0  0.63259  0.73683  0.50190  1.0000
  H   H9        1.0  0.81174  0.65438  0.49359  1.0000
  H   H10       1.0  0.74652  0.74616  0.50069  1.0000
  H   H11       1.0  0.74492  0.25812  0.46982  1.0000
  H   H12       1.0  0.65340  0.19243  0.47687  1.0000
  H   H13       1.0  0.25609  0.25860  0.50648  1.0000
  H   H14       1.0  0.19072  0.35038  0.50835  1.0000
  H   H15       1.0  0.25710  0.74783  0.49923  1.0000
  H   H16       1.0  0.34888  0.81317  0.50103  1.0000
  Co  Co1       1.0  0.50084  0.50267  0.49400  1.0000
  O   O1        1.0  0.52434  0.36439  0.76117  1.0000
  O   O2        1.0  0.48054  0.50377  0.65548  1.0000
  C   C33       1.0  0.53320  0.41899  0.71570  1.0000
  C   C34       1.0  0.59358  0.42397  0.69052  1.0000
  C   C35       1.0  0.62319  0.37024  0.72014  1.0000
  C   C36       1.0  0.57931  0.33576  0.76215  1.0000
  C   C37       1.0  0.48087  0.45770  0.70365  1.0000
  H   H17       1.0  0.61312  0.46199  0.65466  1.0000
  H   H18       1.0  0.67053  0.35806  0.71084  1.0000
  H   H19       1.0  0.58017  0.29153  0.79412  1.0000
  H   H20       1.0  0.43936  0.44360  0.74068  1.0000
