data_image0
_chemical_formula_structural       C32N8H16CoO4C10H10
_chemical_formula_sum              "C42 N8 H26 Co1 O4"
_cell_length_a       22.0194
_cell_length_b       22.0194
_cell_length_c       15
_cell_angle_alpha    90
_cell_angle_beta     90
_cell_angle_gamma    90

_space_group_name_H-M_alt    "P 1"
_space_group_IT_number       1

loop_
  _space_group_symop_operation_xyz
  'x, y, z'

loop_
  _atom_site_type_symbol
  _atom_site_label
  _atom_site_symmetry_multiplicity
  _atom_site_fract_x
  _atom_site_fract_y
  _atom_site_fract_z
  _atom_site_occupancy
  C   C1        1.0  0.36001  0.63542  0.49414  1.0000
  C   C2        1.0  0.41216  0.67272  0.49456  1.0000
  C   C3        1.0  0.46445  0.63194  0.49332  1.0000
  C   C4        1.0  0.38177  0.57269  0.49365  1.0000
  C   C5        1.0  0.36143  0.36424  0.49477  1.0000
  C   C6        1.0  0.32413  0.41636  0.49809  1.0000
  C   C7        1.0  0.36481  0.46877  0.49550  1.0000
  C   C8        1.0  0.42408  0.38613  0.49043  1.0000
  C   C9        1.0  0.63228  0.36575  0.47376  1.0000
  C   C10       1.0  0.58022  0.32835  0.47657  1.0000
  C   C11       1.0  0.52787  0.36915  0.48070  1.0000
  C   C12       1.0  0.61044  0.42842  0.47666  1.0000
  C   C13       1.0  0.63099  0.63668  0.49162  1.0000
  C   C14       1.0  0.66843  0.58461  0.48705  1.0000
  C   C15       1.0  0.62776  0.53229  0.48295  1.0000
  C   C16       1.0  0.56839  0.61494  0.49072  1.0000
  C   C17       1.0  0.33642  0.30565  0.49506  1.0000
  C   C18       1.0  0.27292  0.30077  0.49923  1.0000
  C   C19       1.0  0.23557  0.35306  0.50294  1.0000
  C   C20       1.0  0.26070  0.41161  0.50226  1.0000
  C   C21       1.0  0.30149  0.66052  0.49638  1.0000
  C   C22       1.0  0.29664  0.72404  0.49967  1.0000
  C   C23       1.0  0.34898  0.76146  0.50029  1.0000
  C   C24       1.0  0.40747  0.73623  0.49749  1.0000
  C   C25       1.0  0.65591  0.69518  0.49802  1.0000
  C   C26       1.0  0.71937  0.70016  0.50050  1.0000
  C   C27       1.0  0.75695  0.64797  0.49626  1.0000
  C   C28       1.0  0.73197  0.58955  0.48926  1.0000
  C   C29       1.0  0.69084  0.34084  0.46982  1.0000
  C   C30       1.0  0.69580  0.27730  0.46896  1.0000
  C   C31       1.0  0.64363  0.23979  0.47197  1.0000
  C   C32       1.0  0.58507  0.26485  0.47585  1.0000
  N   N1        1.0  0.44495  0.57178  0.49257  1.0000
  N   N2        1.0  0.42489  0.44933  0.49159  1.0000
  N   N3        1.0  0.34426  0.52547  0.49593  1.0000
  N   N4        1.0  0.54726  0.42917  0.47966  1.0000
  N   N5        1.0  0.47121  0.34863  0.48586  1.0000
  N   N6        1.0  0.56759  0.55176  0.48603  1.0000
  N   N7        1.0  0.52116  0.65241  0.49406  1.0000
  N   N8        1.0  0.64804  0.47556  0.47834  1.0000
  H   H1        1.0  0.44812  0.76456  0.49781  1.0000
  H   H2        1.0  0.26144  0.63133  0.49597  1.0000
  H   H3        1.0  0.23235  0.45222  0.50452  1.0000
  H   H4        1.0  0.36559  0.26566  0.49188  1.0000
  H   H5        1.0  0.54460  0.23632  0.47811  1.0000
  H   H6        1.0  0.73075  0.37016  0.46752  1.0000
  H   H7        1.0  0.76048  0.54910  0.48594  1.0000
  H   H8        1.0  0.62652  0.73499  0.50150  1.0000
  H   H9        1.0  0.80621  0.65354  0.49845  1.0000
  H   H10       1.0  0.74040  0.74494  0.50579  1.0000
  H   H11       1.0  0.74066  0.25622  0.46582  1.0000
  H   H12       1.0  0.64924  0.19052  0.47109  1.0000
  H   H13       1.0  0.25173  0.25594  0.49943  1.0000
  H   H14       1.0  0.18632  0.34756  0.50615  1.0000
  H   H15       1.0  0.25178  0.74519  0.50173  1.0000
  H   H16       1.0  0.34352  0.81074  0.50271  1.0000
  Co  Co1       1.0  0.49618  0.50029  0.49120  1.0000
  O   O1        1.0  0.50099  0.51210  0.89064  1.0000
  O   O2        1.0  0.52015  0.49030  0.64582  1.0000
  O   O3        1.0  0.61119  0.56468  0.72171  1.0000
  O   O4        1.0  0.38126  0.53255  0.72329  1.0000
  C   C33       1.0  0.53335  0.50857  0.80800  1.0000
  C   C34       1.0  0.48739  0.50019  0.72893  1.0000
  C   C35       1.0  0.57475  0.56275  0.79754  1.0000
  C   C36       1.0  0.44177  0.55054  0.72471  1.0000
  C   C37       1.0  0.58412  0.61397  0.84759  1.0000
  C   C38       1.0  0.44500  0.61299  0.72158  1.0000
  C   C39       1.0  0.62852  0.65006  0.80061  1.0000
  C   C40       1.0  0.38358  0.63498  0.71759  1.0000
  C   C41       1.0  0.64357  0.61870  0.72510  1.0000
  C   C42       1.0  0.34692  0.58468  0.71888  1.0000
  H   H17       1.0  0.56071  0.46670  0.81107  1.0000
  H   H18       1.0  0.46251  0.45778  0.74162  1.0000
  H   H19       1.0  0.56213  0.62440  0.91049  1.0000
  H   H20       1.0  0.48628  0.63987  0.72034  1.0000
  H   H21       1.0  0.47240  0.54579  0.88466  1.0000
  H   H22       1.0  0.55319  0.51987  0.64293  1.0000
  H   H23       1.0  0.64700  0.69364  0.82096  1.0000
  H   H24       1.0  0.36883  0.68188  0.71246  1.0000
  H   H25       1.0  0.67409  0.62668  0.66961  1.0000
  H   H26       1.0  0.29819  0.57793  0.71578  1.0000
