data_image0
_chemical_formula_structural       C32N8H16CoH
_chemical_formula_sum              "C32 N8 H17 Co1"
_cell_length_a       22.0194
_cell_length_b       22.0194
_cell_length_c       15
_cell_angle_alpha    90
_cell_angle_beta     90
_cell_angle_gamma    90

_space_group_name_H-M_alt    "P 1"
_space_group_IT_number       1

loop_
  _space_group_symop_operation_xyz
  'x, y, z'

loop_
  _atom_site_type_symbol
  _atom_site_label
  _atom_site_symmetry_multiplicity
  _atom_site_fract_x
  _atom_site_fract_y
  _atom_site_fract_z
  _atom_site_occupancy
  C   C1        1.0  0.36430  0.63515  0.50568  1.0000
  C   C2        1.0  0.41649  0.67235  0.50551  1.0000
  C   C3        1.0  0.46872  0.63153  0.50633  1.0000
  C   C4        1.0  0.38589  0.57249  0.50651  1.0000
  C   C5        1.0  0.36483  0.36450  0.50428  1.0000
  C   C6        1.0  0.32761  0.41668  0.50421  1.0000
  C   C7        1.0  0.36844  0.46889  0.50603  1.0000
  C   C8        1.0  0.42749  0.38608  0.50632  1.0000
  C   C9        1.0  0.63551  0.36502  0.50609  1.0000
  C   C10       1.0  0.58333  0.32782  0.50593  1.0000
  C   C11       1.0  0.53111  0.36866  0.50690  1.0000
  C   C12       1.0  0.61394  0.42769  0.50709  1.0000
  C   C13       1.0  0.63506  0.63567  0.50436  1.0000
  C   C14       1.0  0.67223  0.58346  0.50435  1.0000
  C   C15       1.0  0.63135  0.53129  0.50633  1.0000
  C   C16       1.0  0.57236  0.61413  0.50622  1.0000
  C   C17       1.0  0.33978  0.30594  0.50147  1.0000
  C   C18       1.0  0.27629  0.30118  0.49887  1.0000
  C   C19       1.0  0.23892  0.35356  0.49891  1.0000
  C   C20       1.0  0.26409  0.41205  0.50146  1.0000
  C   C21       1.0  0.30572  0.66019  0.50457  1.0000
  C   C22       1.0  0.30094  0.72370  0.50362  1.0000
  C   C23       1.0  0.35331  0.76106  0.50355  1.0000
  C   C24       1.0  0.41183  0.73589  0.50435  1.0000
  C   C25       1.0  0.66019  0.69420  0.50157  1.0000
  C   C26       1.0  0.72369  0.69889  0.49895  1.0000
  C   C27       1.0  0.76098  0.64646  0.49886  1.0000
  C   C28       1.0  0.73575  0.58800  0.50145  1.0000
  C   C29       1.0  0.69410  0.33997  0.50466  1.0000
  C   C30       1.0  0.69888  0.27647  0.50362  1.0000
  C   C31       1.0  0.64651  0.23912  0.50356  1.0000
  C   C32       1.0  0.58799  0.26429  0.50448  1.0000
  N   N1        1.0  0.44922  0.57125  0.50614  1.0000
  N   N2        1.0  0.42873  0.44941  0.50634  1.0000
  N   N3        1.0  0.34811  0.52557  0.50661  1.0000
  N   N4        1.0  0.55060  0.42895  0.50686  1.0000
  N   N5        1.0  0.47442  0.34831  0.50693  1.0000
  N   N6        1.0  0.57108  0.55080  0.50644  1.0000
  N   N7        1.0  0.52541  0.65188  0.50657  1.0000
  N   N8        1.0  0.65170  0.47461  0.50711  1.0000
  H   H1        1.0  0.45245  0.76425  0.50402  1.0000
  H   H2        1.0  0.26571  0.63098  0.50439  1.0000
  H   H3        1.0  0.23574  0.45268  0.50115  1.0000
  H   H4        1.0  0.36900  0.26594  0.50101  1.0000
  H   H5        1.0  0.54737  0.23592  0.50401  1.0000
  H   H6        1.0  0.73410  0.36920  0.50433  1.0000
  H   H7        1.0  0.76402  0.54732  0.50100  1.0000
  H   H8        1.0  0.63102  0.73424  0.50116  1.0000
  H   H9        1.0  0.81025  0.65187  0.49638  1.0000
  H   H10       1.0  0.74492  0.74369  0.49647  1.0000
  H   H11       1.0  0.74372  0.25527  0.50256  1.0000
  H   H12       1.0  0.65199  0.18983  0.50248  1.0000
  H   H13       1.0  0.25509  0.25637  0.49640  1.0000
  H   H14       1.0  0.18965  0.34810  0.49653  1.0000
  H   H15       1.0  0.25611  0.74492  0.50263  1.0000
  H   H16       1.0  0.34784  0.81035  0.50249  1.0000
  Co  Co1       1.0  0.49987  0.50014  0.51053  1.0000
  H   H17       1.0  0.49945  0.50055  0.60572  1.0000
