data_image0
_chemical_formula_structural       C80
_chemical_formula_sum              "C80"
_cell_length_a       12.2976
_cell_length_b       15
_cell_length_c       17.04
_cell_angle_alpha    90
_cell_angle_beta     90
_cell_angle_gamma    90

_space_group_name_H-M_alt    "P 1"
_space_group_IT_number       1

loop_
  _space_group_symop_operation_xyz
  'x, y, z'

loop_
  _atom_site_type_symbol
  _atom_site_label
  _atom_site_symmetry_multiplicity
  _atom_site_fract_x
  _atom_site_fract_y
  _atom_site_fract_z
  _atom_site_occupancy
  C   C1        1.0  0.85000  0.50000  0.04160  1.0000
  C   C2        1.0  0.95000  0.50000  0.08340  1.0000
  C   C3        1.0  0.95000  0.50000  0.16660  1.0000
  C   C4        1.0  0.85000  0.50000  0.20840  1.0000
  C   C5        1.0  0.85000  0.50000  0.29160  1.0000
  C   C6        1.0  0.95000  0.50000  0.33340  1.0000
  C   C7        1.0  0.95000  0.50000  0.41660  1.0000
  C   C8        1.0  0.85000  0.50000  0.45840  1.0000
  C   C9        1.0  0.85000  0.50000  0.54160  1.0000
  C   C10       1.0  0.95000  0.50000  0.58340  1.0000
  C   C11       1.0  0.95000  0.50000  0.66660  1.0000
  C   C12       1.0  0.85000  0.50000  0.70840  1.0000
  C   C13       1.0  0.85000  0.50000  0.79160  1.0000
  C   C14       1.0  0.95000  0.50000  0.83340  1.0000
  C   C15       1.0  0.95000  0.50000  0.91660  1.0000
  C   C16       1.0  0.85000  0.50000  0.95840  1.0000
  C   C17       1.0  0.65000  0.50000  0.04160  1.0000
  C   C18       1.0  0.75000  0.50000  0.08340  1.0000
  C   C19       1.0  0.75000  0.50000  0.16660  1.0000
  C   C20       1.0  0.65000  0.50000  0.20840  1.0000
  C   C21       1.0  0.65000  0.50000  0.29160  1.0000
  C   C22       1.0  0.75000  0.50000  0.33340  1.0000
  C   C23       1.0  0.75000  0.50000  0.41660  1.0000
  C   C24       1.0  0.65000  0.50000  0.45840  1.0000
  C   C25       1.0  0.65000  0.50000  0.54160  1.0000
  C   C26       1.0  0.75000  0.50000  0.58340  1.0000
  C   C27       1.0  0.75000  0.50000  0.66660  1.0000
  C   C28       1.0  0.65000  0.50000  0.70840  1.0000
  C   C29       1.0  0.65000  0.50000  0.79160  1.0000
  C   C30       1.0  0.75000  0.50000  0.83340  1.0000
  C   C31       1.0  0.75000  0.50000  0.91660  1.0000
  C   C32       1.0  0.65000  0.50000  0.95840  1.0000
  C   C33       1.0  0.45000  0.50000  0.04160  1.0000
  C   C34       1.0  0.55000  0.50000  0.08340  1.0000
  C   C35       1.0  0.55000  0.50000  0.16660  1.0000
  C   C36       1.0  0.45000  0.50000  0.20840  1.0000
  C   C37       1.0  0.45000  0.50000  0.29160  1.0000
  C   C38       1.0  0.55000  0.50000  0.33340  1.0000
  C   C39       1.0  0.55000  0.50000  0.41660  1.0000
  C   C40       1.0  0.45000  0.50000  0.45840  1.0000
  C   C41       1.0  0.45000  0.50000  0.54160  1.0000
  C   C42       1.0  0.55000  0.50000  0.58340  1.0000
  C   C43       1.0  0.55000  0.50000  0.66660  1.0000
  C   C44       1.0  0.45000  0.50000  0.70840  1.0000
  C   C45       1.0  0.45000  0.50000  0.79160  1.0000
  C   C46       1.0  0.55000  0.50000  0.83340  1.0000
  C   C47       1.0  0.55000  0.50000  0.91660  1.0000
  C   C48       1.0  0.45000  0.50000  0.95840  1.0000
  C   C49       1.0  0.25000  0.50000  0.04160  1.0000
  C   C50       1.0  0.35000  0.50000  0.08340  1.0000
  C   C51       1.0  0.35000  0.50000  0.16660  1.0000
  C   C52       1.0  0.25000  0.50000  0.20840  1.0000
  C   C53       1.0  0.25000  0.50000  0.29160  1.0000
  C   C54       1.0  0.35000  0.50000  0.33340  1.0000
  C   C55       1.0  0.35000  0.50000  0.41660  1.0000
  C   C56       1.0  0.25000  0.50000  0.45840  1.0000
  C   C57       1.0  0.25000  0.50000  0.54160  1.0000
  C   C58       1.0  0.35000  0.50000  0.58340  1.0000
  C   C59       1.0  0.35000  0.50000  0.66660  1.0000
  C   C60       1.0  0.25000  0.50000  0.70840  1.0000
  C   C61       1.0  0.25000  0.50000  0.79160  1.0000
  C   C62       1.0  0.35000  0.50000  0.83340  1.0000
  C   C63       1.0  0.35000  0.50000  0.91660  1.0000
  C   C64       1.0  0.25000  0.50000  0.95840  1.0000
  C   C65       1.0  0.05000  0.50000  0.04160  1.0000
  C   C66       1.0  0.15000  0.50000  0.08340  1.0000
  C   C67       1.0  0.15000  0.50000  0.16660  1.0000
  C   C68       1.0  0.05000  0.50000  0.20840  1.0000
  C   C69       1.0  0.05000  0.50000  0.29160  1.0000
  C   C70       1.0  0.15000  0.50000  0.33340  1.0000
  C   C71       1.0  0.15000  0.50000  0.41660  1.0000
  C   C72       1.0  0.05000  0.50000  0.45840  1.0000
  C   C73       1.0  0.05000  0.50000  0.54160  1.0000
  C   C74       1.0  0.15000  0.50000  0.58340  1.0000
  C   C75       1.0  0.15000  0.50000  0.66660  1.0000
  C   C76       1.0  0.05000  0.50000  0.70840  1.0000
  C   C77       1.0  0.05000  0.50000  0.79160  1.0000
  C   C78       1.0  0.15000  0.50000  0.83340  1.0000
  C   C79       1.0  0.15000  0.50000  0.91660  1.0000
  C   C80       1.0  0.05000  0.50000  0.95840  1.0000
