data_image0
_chemical_formula_structural       C80O4C10H10
_chemical_formula_sum              "C90 O4 H10"
_cell_length_a       12.2976
_cell_length_b       15
_cell_length_c       17.04
_cell_angle_alpha    90
_cell_angle_beta     90
_cell_angle_gamma    90

_space_group_name_H-M_alt    "P 1"
_space_group_IT_number       1

loop_
  _space_group_symop_operation_xyz
  'x, y, z'

loop_
  _atom_site_type_symbol
  _atom_site_label
  _atom_site_symmetry_multiplicity
  _atom_site_fract_x
  _atom_site_fract_y
  _atom_site_fract_z
  _atom_site_occupancy
  C   C1        1.0  0.84717  0.50214  0.04172  1.0000
  C   C2        1.0  0.94719  0.50100  0.08358  1.0000
  C   C3        1.0  0.94718  0.49689  0.16677  1.0000
  C   C4        1.0  0.84718  0.49375  0.20856  1.0000
  C   C5        1.0  0.84714  0.48746  0.29166  1.0000
  C   C6        1.0  0.94721  0.48559  0.33343  1.0000
  C   C7        1.0  0.94724  0.48175  0.41664  1.0000
  C   C8        1.0  0.84718  0.47999  0.45847  1.0000
  C   C9        1.0  0.84720  0.48113  0.54174  1.0000
  C   C10       1.0  0.94720  0.48325  0.58355  1.0000
  C   C11       1.0  0.94715  0.48734  0.66673  1.0000
  C   C12       1.0  0.84712  0.48944  0.70853  1.0000
  C   C13       1.0  0.84709  0.49492  0.79164  1.0000
  C   C14       1.0  0.94708  0.49757  0.83341  1.0000
  C   C15       1.0  0.94714  0.50121  0.91660  1.0000
  C   C16       1.0  0.84713  0.50228  0.95844  1.0000
  C   C17       1.0  0.64721  0.50225  0.04170  1.0000
  C   C18       1.0  0.74719  0.50099  0.08358  1.0000
  C   C19       1.0  0.74720  0.49658  0.16678  1.0000
  C   C20       1.0  0.64721  0.49374  0.20856  1.0000
  C   C21       1.0  0.64721  0.48743  0.29165  1.0000
  C   C22       1.0  0.74716  0.48409  0.33339  1.0000
  C   C23       1.0  0.74719  0.48030  0.41659  1.0000
  C   C24       1.0  0.64720  0.47990  0.45846  1.0000
  C   C25       1.0  0.64716  0.48038  0.54177  1.0000
  C   C26       1.0  0.74720  0.48202  0.58361  1.0000
  C   C27       1.0  0.74714  0.48631  0.66679  1.0000
  C   C28       1.0  0.64712  0.48876  0.70852  1.0000
  C   C29       1.0  0.64713  0.49463  0.79160  1.0000
  C   C30       1.0  0.74710  0.49740  0.83339  1.0000
  C   C31       1.0  0.74716  0.50128  0.91658  1.0000
  C   C32       1.0  0.64718  0.50234  0.95842  1.0000
  C   C33       1.0  0.44719  0.50213  0.04168  1.0000
  C   C34       1.0  0.54721  0.50106  0.08354  1.0000
  C   C35       1.0  0.54722  0.49682  0.16674  1.0000
  C   C36       1.0  0.44721  0.49428  0.20853  1.0000
  C   C37       1.0  0.44723  0.48854  0.29167  1.0000
  C   C38       1.0  0.54722  0.48527  0.33344  1.0000
  C   C39       1.0  0.54719  0.48108  0.41663  1.0000
  C   C40       1.0  0.44723  0.48000  0.45851  1.0000
  C   C41       1.0  0.44720  0.48046  0.54176  1.0000
  C   C42       1.0  0.54713  0.48152  0.58362  1.0000
  C   C43       1.0  0.54719  0.48595  0.66676  1.0000
  C   C44       1.0  0.44722  0.48917  0.70849  1.0000
  C   C45       1.0  0.44715  0.49476  0.79161  1.0000
  C   C46       1.0  0.54714  0.49724  0.83338  1.0000
  C   C47       1.0  0.54718  0.50117  0.91656  1.0000
  C   C48       1.0  0.44716  0.50217  0.95840  1.0000
  C   C49       1.0  0.24721  0.50211  0.04170  1.0000
  C   C50       1.0  0.34721  0.50100  0.08354  1.0000
  C   C51       1.0  0.34722  0.49709  0.16674  1.0000
  C   C52       1.0  0.24722  0.49475  0.20854  1.0000
  C   C53       1.0  0.24725  0.48928  0.29168  1.0000
  C   C54       1.0  0.34726  0.48608  0.33350  1.0000
  C   C55       1.0  0.34728  0.48151  0.41667  1.0000
  C   C56       1.0  0.24729  0.48107  0.45850  1.0000
  C   C57       1.0  0.24724  0.48164  0.54173  1.0000
  C   C58       1.0  0.34723  0.48257  0.58355  1.0000
  C   C59       1.0  0.34724  0.48709  0.66670  1.0000
  C   C60       1.0  0.24722  0.49024  0.70846  1.0000
  C   C61       1.0  0.24713  0.49535  0.79160  1.0000
  C   C62       1.0  0.34714  0.49751  0.83338  1.0000
  C   C63       1.0  0.34715  0.50114  0.91657  1.0000
  C   C64       1.0  0.24716  0.50212  0.95844  1.0000
  C   C65       1.0  0.04719  0.50213  0.04172  1.0000
  C   C66       1.0  0.14721  0.50106  0.08355  1.0000
  C   C67       1.0  0.14722  0.49729  0.16675  1.0000
  C   C68       1.0  0.04722  0.49455  0.20854  1.0000
  C   C69       1.0  0.04722  0.48907  0.29167  1.0000
  C   C70       1.0  0.14726  0.48678  0.33348  1.0000
  C   C71       1.0  0.14732  0.48280  0.41667  1.0000
  C   C72       1.0  0.04727  0.48180  0.45847  1.0000
  C   C73       1.0  0.04721  0.48233  0.54171  1.0000
  C   C74       1.0  0.14725  0.48360  0.58352  1.0000
  C   C75       1.0  0.14719  0.48785  0.66670  1.0000
  C   C76       1.0  0.04715  0.49027  0.70849  1.0000
  C   C77       1.0  0.04709  0.49532  0.79163  1.0000
  C   C78       1.0  0.14711  0.49768  0.83339  1.0000
  C   C79       1.0  0.14716  0.50113  0.91661  1.0000
  C   C80       1.0  0.04715  0.50215  0.95845  1.0000
  O   O1        1.0  0.57739  0.91132  0.50086  1.0000
  O   O2        1.0  0.63314  0.69868  0.60786  1.0000
  O   O3        1.0  0.77466  0.73176  0.46568  1.0000
  O   O4        1.0  0.37168  0.76549  0.58670  1.0000
  C   C81       1.0  0.64003  0.83484  0.52378  1.0000
  C   C82       1.0  0.57064  0.77315  0.57906  1.0000
  C   C83       1.0  0.68655  0.78802  0.45302  1.0000
  C   C84       1.0  0.46396  0.74761  0.54220  1.0000
  C   C85       1.0  0.66120  0.78928  0.37455  1.0000
  C   C86       1.0  0.43327  0.70976  0.47191  1.0000
  C   C87       1.0  0.73697  0.73053  0.33593  1.0000
  C   C88       1.0  0.31650  0.70371  0.47263  1.0000
  C   C89       1.0  0.80401  0.69780  0.39318  1.0000
  C   C90       1.0  0.28334  0.73820  0.54315  1.0000
  H   H1        1.0  0.70784  0.85996  0.55980  1.0000
  H   H2        1.0  0.55151  0.81311  0.63137  1.0000
  H   H3        1.0  0.59691  0.82821  0.34758  1.0000
  H   H4        1.0  0.48778  0.68779  0.42578  1.0000
  H   H5        1.0  0.50977  0.88858  0.47840  1.0000
  H   H6        1.0  0.65469  0.66235  0.56310  1.0000
  H   H7        1.0  0.74090  0.71475  0.27378  1.0000
  H   H8        1.0  0.26467  0.67639  0.42701  1.0000
  H   H9        1.0  0.87207  0.65198  0.39350  1.0000
  H   H10       1.0  0.20451  0.74822  0.57033  1.0000
