data_image0
_chemical_formula_structural       C80O2C5H5
_chemical_formula_sum              "C85 O2 H5"
_cell_length_a       12.2976
_cell_length_b       15
_cell_length_c       17.04
_cell_angle_alpha    90
_cell_angle_beta     90
_cell_angle_gamma    90

_space_group_name_H-M_alt    "P 1"
_space_group_IT_number       1

loop_
  _space_group_symop_operation_xyz
  'x, y, z'

loop_
  _atom_site_type_symbol
  _atom_site_label
  _atom_site_symmetry_multiplicity
  _atom_site_fract_x
  _atom_site_fract_y
  _atom_site_fract_z
  _atom_site_occupancy
  C   C1        1.0  0.84864  0.50400  0.04165  1.0000
  C   C2        1.0  0.94868  0.50211  0.08350  1.0000
  C   C3        1.0  0.94868  0.49697  0.16669  1.0000
  C   C4        1.0  0.84869  0.49371  0.20849  1.0000
  C   C5        1.0  0.84868  0.48783  0.29161  1.0000
  C   C6        1.0  0.94873  0.48565  0.33338  1.0000
  C   C7        1.0  0.94877  0.48221  0.41660  1.0000
  C   C8        1.0  0.84873  0.48121  0.45842  1.0000
  C   C9        1.0  0.84876  0.48264  0.54166  1.0000
  C   C10       1.0  0.94879  0.48487  0.58345  1.0000
  C   C11       1.0  0.94879  0.49025  0.66661  1.0000
  C   C12       1.0  0.84873  0.49331  0.70835  1.0000
  C   C13       1.0  0.84872  0.49947  0.79144  1.0000
  C   C14       1.0  0.94876  0.50206  0.83323  1.0000
  C   C15       1.0  0.94872  0.50512  0.91649  1.0000
  C   C16       1.0  0.84867  0.50558  0.95836  1.0000
  C   C17       1.0  0.64867  0.50266  0.04169  1.0000
  C   C18       1.0  0.74866  0.50155  0.08354  1.0000
  C   C19       1.0  0.74868  0.49602  0.16670  1.0000
  C   C20       1.0  0.64872  0.49134  0.20848  1.0000
  C   C21       1.0  0.64868  0.48437  0.29156  1.0000
  C   C22       1.0  0.74870  0.48372  0.33338  1.0000
  C   C23       1.0  0.74867  0.48013  0.41658  1.0000
  C   C24       1.0  0.64868  0.47697  0.45839  1.0000
  C   C25       1.0  0.64874  0.47885  0.54169  1.0000
  C   C26       1.0  0.74866  0.48312  0.58346  1.0000
  C   C27       1.0  0.74876  0.48892  0.66662  1.0000
  C   C28       1.0  0.64875  0.49081  0.70841  1.0000
  C   C29       1.0  0.64872  0.49740  0.79150  1.0000
  C   C30       1.0  0.74870  0.50129  0.83326  1.0000
  C   C31       1.0  0.74868  0.50456  0.91650  1.0000
  C   C32       1.0  0.64867  0.50414  0.95839  1.0000
  C   C33       1.0  0.44875  0.50134  0.04167  1.0000
  C   C34       1.0  0.54870  0.49982  0.08354  1.0000
  C   C35       1.0  0.54873  0.49380  0.16670  1.0000
  C   C36       1.0  0.44878  0.48941  0.20848  1.0000
  C   C37       1.0  0.44876  0.48153  0.29149  1.0000
  C   C38       1.0  0.54877  0.47907  0.33330  1.0000
  C   C39       1.0  0.54873  0.47515  0.41651  1.0000
  C   C40       1.0  0.44873  0.47365  0.45838  1.0000
  C   C41       1.0  0.44878  0.47595  0.54168  1.0000
  C   C42       1.0  0.54875  0.47931  0.58354  1.0000
  C   C43       1.0  0.54878  0.48584  0.66664  1.0000
  C   C44       1.0  0.44879  0.48896  0.70842  1.0000
  C   C45       1.0  0.44873  0.49571  0.79152  1.0000
  C   C46       1.0  0.54871  0.49904  0.83331  1.0000
  C   C47       1.0  0.54870  0.50261  0.91652  1.0000
  C   C48       1.0  0.44872  0.50270  0.95839  1.0000
  C   C49       1.0  0.24876  0.50200  0.04166  1.0000
  C   C50       1.0  0.34877  0.49951  0.08354  1.0000
  C   C51       1.0  0.34885  0.49362  0.16665  1.0000
  C   C52       1.0  0.24882  0.49104  0.20846  1.0000
  C   C53       1.0  0.24886  0.48358  0.29153  1.0000
  C   C54       1.0  0.34881  0.47851  0.33331  1.0000
  C   C55       1.0  0.34873  0.47459  0.41651  1.0000
  C   C56       1.0  0.24879  0.47618  0.45839  1.0000
  C   C57       1.0  0.24879  0.47802  0.54164  1.0000
  C   C58       1.0  0.34879  0.47884  0.58351  1.0000
  C   C59       1.0  0.34880  0.48558  0.66661  1.0000
  C   C60       1.0  0.24882  0.49010  0.70840  1.0000
  C   C61       1.0  0.24876  0.49656  0.79147  1.0000
  C   C62       1.0  0.34876  0.49857  0.83331  1.0000
  C   C63       1.0  0.34874  0.50208  0.91653  1.0000
  C   C64       1.0  0.24874  0.50327  0.95839  1.0000
  C   C65       1.0  0.04870  0.50355  0.04164  1.0000
  C   C66       1.0  0.14872  0.50100  0.08349  1.0000
  C   C67       1.0  0.14877  0.49576  0.16668  1.0000
  C   C68       1.0  0.04869  0.49354  0.20848  1.0000
  C   C69       1.0  0.04874  0.48750  0.29160  1.0000
  C   C70       1.0  0.14879  0.48303  0.33334  1.0000
  C   C71       1.0  0.14885  0.47942  0.41657  1.0000
  C   C72       1.0  0.04877  0.48075  0.45841  1.0000
  C   C73       1.0  0.04879  0.48212  0.54168  1.0000
  C   C74       1.0  0.14884  0.48230  0.58348  1.0000
  C   C75       1.0  0.14880  0.48803  0.66659  1.0000
  C   C76       1.0  0.04879  0.49272  0.70834  1.0000
  C   C77       1.0  0.04878  0.49882  0.79146  1.0000
  C   C78       1.0  0.14877  0.50029  0.83326  1.0000
  C   C79       1.0  0.14875  0.50355  0.91649  1.0000
  C   C80       1.0  0.04872  0.50496  0.95836  1.0000
  O   O1        1.0  0.35601  0.69251  0.50344  1.0000
  O   O2        1.0  0.33295  0.69810  0.29033  1.0000
  C   C81       1.0  0.38718  0.69721  0.42414  1.0000
  C   C82       1.0  0.50173  0.70319  0.41992  1.0000
  C   C83       1.0  0.54049  0.70167  0.49835  1.0000
  C   C84       1.0  0.45080  0.69512  0.54676  1.0000
  C   C85       1.0  0.30534  0.69201  0.36842  1.0000
  H   H1        1.0  0.54867  0.70624  0.36609  1.0000
  H   H2        1.0  0.62473  0.70344  0.51754  1.0000
  H   H3        1.0  0.44074  0.68987  0.60980  1.0000
  H   H4        1.0  0.22044  0.68207  0.38447  1.0000
  H   H5        1.0  0.27274  0.67600  0.25877  1.0000
