data_image0
_chemical_formula_structural       C80O2C5H4
_chemical_formula_sum              "C85 O2 H4"
_cell_length_a       12.2976
_cell_length_b       15
_cell_length_c       17.04
_cell_angle_alpha    90
_cell_angle_beta     90
_cell_angle_gamma    90

_space_group_name_H-M_alt    "P 1"
_space_group_IT_number       1

loop_
  _space_group_symop_operation_xyz
  'x, y, z'

loop_
  _atom_site_type_symbol
  _atom_site_label
  _atom_site_symmetry_multiplicity
  _atom_site_fract_x
  _atom_site_fract_y
  _atom_site_fract_z
  _atom_site_occupancy
  C   C1        1.0  0.84884  0.50611  0.04156  1.0000
  C   C2        1.0  0.94889  0.50429  0.08342  1.0000
  C   C3        1.0  0.94891  0.49868  0.16659  1.0000
  C   C4        1.0  0.84884  0.49520  0.20833  1.0000
  C   C5        1.0  0.84884  0.48864  0.29140  1.0000
  C   C6        1.0  0.94890  0.48580  0.33315  1.0000
  C   C7        1.0  0.94891  0.48206  0.41633  1.0000
  C   C8        1.0  0.84891  0.48135  0.45818  1.0000
  C   C9        1.0  0.84893  0.48312  0.54142  1.0000
  C   C10       1.0  0.94896  0.48541  0.58323  1.0000
  C   C11       1.0  0.94895  0.49149  0.66632  1.0000
  C   C12       1.0  0.84892  0.49501  0.70807  1.0000
  C   C13       1.0  0.84891  0.50150  0.79119  1.0000
  C   C14       1.0  0.94894  0.50416  0.83303  1.0000
  C   C15       1.0  0.94891  0.50745  0.91632  1.0000
  C   C16       1.0  0.84887  0.50782  0.95824  1.0000
  C   C17       1.0  0.64879  0.50262  0.04154  1.0000
  C   C18       1.0  0.74881  0.50271  0.08339  1.0000
  C   C19       1.0  0.74880  0.49704  0.16656  1.0000
  C   C20       1.0  0.64883  0.49137  0.20828  1.0000
  C   C21       1.0  0.64881  0.48442  0.29136  1.0000
  C   C22       1.0  0.74887  0.48401  0.33314  1.0000
  C   C23       1.0  0.74886  0.48014  0.41636  1.0000
  C   C24       1.0  0.64887  0.47633  0.45822  1.0000
  C   C25       1.0  0.64891  0.47811  0.54150  1.0000
  C   C26       1.0  0.74887  0.48348  0.58326  1.0000
  C   C27       1.0  0.74894  0.48991  0.66636  1.0000
  C   C28       1.0  0.64889  0.49104  0.70816  1.0000
  C   C29       1.0  0.64888  0.49780  0.79127  1.0000
  C   C30       1.0  0.74886  0.50282  0.83305  1.0000
  C   C31       1.0  0.74883  0.50602  0.91635  1.0000
  C   C32       1.0  0.64881  0.50418  0.95825  1.0000
  C   C33       1.0  0.44886  0.49931  0.04151  1.0000
  C   C34       1.0  0.54883  0.49859  0.08336  1.0000
  C   C35       1.0  0.54878  0.49276  0.16650  1.0000
  C   C36       1.0  0.44883  0.48778  0.20822  1.0000
  C   C37       1.0  0.44886  0.48020  0.29125  1.0000
  C   C38       1.0  0.54887  0.47849  0.33310  1.0000
  C   C39       1.0  0.54889  0.47402  0.41636  1.0000
  C   C40       1.0  0.44892  0.47148  0.45823  1.0000
  C   C41       1.0  0.44892  0.47330  0.54156  1.0000
  C   C42       1.0  0.54892  0.47752  0.58337  1.0000
  C   C43       1.0  0.54896  0.48471  0.66644  1.0000
  C   C44       1.0  0.44889  0.48721  0.70823  1.0000
  C   C45       1.0  0.44889  0.49413  0.79133  1.0000
  C   C46       1.0  0.54887  0.49821  0.83312  1.0000
  C   C47       1.0  0.54885  0.50155  0.91637  1.0000
  C   C48       1.0  0.44888  0.50078  0.95825  1.0000
  C   C49       1.0  0.24892  0.50081  0.04153  1.0000
  C   C50       1.0  0.34888  0.49746  0.08336  1.0000
  C   C51       1.0  0.34888  0.49149  0.16646  1.0000
  C   C52       1.0  0.24891  0.48921  0.20823  1.0000
  C   C53       1.0  0.24892  0.48176  0.29122  1.0000
  C   C54       1.0  0.34886  0.47676  0.33302  1.0000
  C   C55       1.0  0.34887  0.47246  0.41628  1.0000
  C   C56       1.0  0.24885  0.47400  0.45817  1.0000
  C   C57       1.0  0.24884  0.47600  0.54148  1.0000
  C   C58       1.0  0.34887  0.47623  0.58337  1.0000
  C   C59       1.0  0.34887  0.48337  0.66646  1.0000
  C   C60       1.0  0.24891  0.48882  0.70821  1.0000
  C   C61       1.0  0.24890  0.49558  0.79132  1.0000
  C   C62       1.0  0.34891  0.49686  0.83316  1.0000
  C   C63       1.0  0.34891  0.50030  0.91638  1.0000
  C   C64       1.0  0.24893  0.50223  0.95824  1.0000
  C   C65       1.0  0.04895  0.50504  0.04156  1.0000
  C   C66       1.0  0.14892  0.50097  0.08339  1.0000
  C   C67       1.0  0.14899  0.49522  0.16654  1.0000
  C   C68       1.0  0.04892  0.49392  0.20829  1.0000
  C   C69       1.0  0.04892  0.48715  0.29135  1.0000
  C   C70       1.0  0.14891  0.48144  0.33303  1.0000
  C   C71       1.0  0.14890  0.47770  0.41627  1.0000
  C   C72       1.0  0.04891  0.47994  0.45816  1.0000
  C   C73       1.0  0.04891  0.48173  0.54142  1.0000
  C   C74       1.0  0.14892  0.48139  0.58328  1.0000
  C   C75       1.0  0.14890  0.48764  0.66640  1.0000
  C   C76       1.0  0.04894  0.49354  0.70810  1.0000
  C   C77       1.0  0.04892  0.50002  0.79121  1.0000
  C   C78       1.0  0.14894  0.50050  0.83308  1.0000
  C   C79       1.0  0.14894  0.50392  0.91634  1.0000
  C   C80       1.0  0.04895  0.50657  0.95823  1.0000
  O   O1        1.0  0.35707  0.69371  0.50292  1.0000
  O   O2        1.0  0.32401  0.70338  0.29407  1.0000
  C   C81       1.0  0.39106  0.69939  0.42493  1.0000
  C   C82       1.0  0.50354  0.70254  0.42220  1.0000
  C   C83       1.0  0.54094  0.69874  0.50134  1.0000
  C   C84       1.0  0.44922  0.69334  0.54769  1.0000
  C   C85       1.0  0.30623  0.69826  0.36528  1.0000
  H   H1        1.0  0.55177  0.70600  0.36895  1.0000
  H   H2        1.0  0.62453  0.69821  0.52185  1.0000
  H   H3        1.0  0.43690  0.68744  0.61054  1.0000
  H   H4        1.0  0.22209  0.69120  0.38929  1.0000
