data_image0
_chemical_formula_structural       C224N8H16Cu
_chemical_formula_sum              "C224 N8 H16 Cu1"
_cell_length_a       25.7292
_cell_length_b       19.8864
_cell_length_c       24
_cell_angle_alpha    90
_cell_angle_beta     90
_cell_angle_gamma    90

_space_group_name_H-M_alt    "P 1"
_space_group_IT_number       1

loop_
  _space_group_symop_operation_xyz
  'x, y, z'

loop_
  _atom_site_type_symbol
  _atom_site_label
  _atom_site_symmetry_multiplicity
  _atom_site_fract_x
  _atom_site_fract_y
  _atom_site_fract_z
  _atom_site_occupancy
  C   C1        1.0  0.02779  0.03080  0.48285  1.0000
  C   C2        1.0  0.13896  0.03080  0.48433  1.0000
  C   C3        1.0  0.11115  0.09329  0.48475  1.0000
  C   C4        1.0  0.05559  0.09330  0.48395  1.0000
  C   C5        1.0  0.02777  0.15580  0.48472  1.0000
  C   C6        1.0  0.13890  0.15576  0.48698  1.0000
  C   C7        1.0  0.11108  0.21823  0.48764  1.0000
  C   C8        1.0  0.05555  0.21828  0.48608  1.0000
  C   C9        1.0  0.02774  0.28075  0.48673  1.0000
  C   C10       1.0  0.13880  0.28074  0.49012  1.0000
  C   C11       1.0  0.11101  0.34327  0.49018  1.0000
  C   C12       1.0  0.05550  0.34325  0.48833  1.0000
  C   C13       1.0  0.02775  0.40575  0.48881  1.0000
  C   C14       1.0  0.13879  0.40577  0.49215  1.0000
  C   C15       1.0  0.11105  0.46832  0.49136  1.0000
  C   C16       1.0  0.05551  0.46829  0.48969  1.0000
  C   C17       1.0  0.02775  0.53083  0.48862  1.0000
  C   C18       1.0  0.13883  0.53086  0.49205  1.0000
  C   C19       1.0  0.11105  0.59336  0.48974  1.0000
  C   C20       1.0  0.05551  0.59336  0.48764  1.0000
  C   C21       1.0  0.02774  0.65580  0.48496  1.0000
  C   C22       1.0  0.13882  0.65588  0.48950  1.0000
  C   C23       1.0  0.11104  0.71833  0.48635  1.0000
  C   C24       1.0  0.05553  0.71827  0.48390  1.0000
  C   C25       1.0  0.02776  0.78077  0.48214  1.0000
  C   C26       1.0  0.13886  0.78084  0.48633  1.0000
  C   C27       1.0  0.11112  0.84331  0.48389  1.0000
  C   C28       1.0  0.05558  0.84327  0.48213  1.0000
  C   C29       1.0  0.02777  0.90579  0.48166  1.0000
  C   C30       1.0  0.13894  0.90580  0.48413  1.0000
  C   C31       1.0  0.11116  0.96831  0.48320  1.0000
  C   C32       1.0  0.05559  0.96829  0.48231  1.0000
  C   C33       1.0  0.19450  0.03082  0.48597  1.0000
  C   C34       1.0  0.30556  0.03083  0.49147  1.0000
  C   C35       1.0  0.27776  0.09331  0.49086  1.0000
  C   C36       1.0  0.22227  0.09330  0.48816  1.0000
  C   C37       1.0  0.19444  0.15577  0.48887  1.0000
  C   C38       1.0  0.30549  0.15577  0.49394  1.0000
  C   C39       1.0  0.27769  0.21827  0.49439  1.0000
  C   C40       1.0  0.22216  0.21826  0.49193  1.0000
  C   C41       1.0  0.19434  0.28076  0.49240  1.0000
  C   C42       1.0  0.30544  0.28076  0.49716  1.0000
  C   C43       1.0  0.27762  0.34327  0.49722  1.0000
  C   C44       1.0  0.22209  0.34326  0.49487  1.0000
  C   C45       1.0  0.19432  0.40578  0.49449  1.0000
  C   C46       1.0  0.30542  0.40578  0.49915  1.0000
  C   C47       1.0  0.27764  0.46831  0.49838  1.0000
  C   C48       1.0  0.22210  0.46831  0.49603  1.0000
  C   C49       1.0  0.19435  0.53085  0.49453  1.0000
  C   C50       1.0  0.30542  0.53084  0.49944  1.0000
  C   C51       1.0  0.27766  0.59338  0.49769  1.0000
  C   C52       1.0  0.22213  0.59339  0.49509  1.0000
  C   C53       1.0  0.19433  0.65588  0.49247  1.0000
  C   C54       1.0  0.30546  0.65588  0.49800  1.0000
  C   C55       1.0  0.27767  0.71837  0.49540  1.0000
  C   C56       1.0  0.22214  0.71839  0.49247  1.0000
  C   C57       1.0  0.19438  0.78086  0.48932  1.0000
  C   C58       1.0  0.30545  0.78090  0.49530  1.0000
  C   C59       1.0  0.27768  0.84338  0.49230  1.0000
  C   C60       1.0  0.22217  0.84338  0.48922  1.0000
  C   C61       1.0  0.19447  0.90586  0.48635  1.0000
  C   C62       1.0  0.30551  0.90588  0.49233  1.0000
  C   C63       1.0  0.27778  0.96836  0.48978  1.0000
  C   C64       1.0  0.22229  0.96835  0.48688  1.0000
  C   C65       1.0  0.36105  0.03082  0.49460  1.0000
  C   C66       1.0  0.47221  0.03083  0.49799  1.0000
  C   C67       1.0  0.44439  0.09332  0.49809  1.0000
  C   C68       1.0  0.38883  0.09331  0.49650  1.0000
  C   C69       1.0  0.36101  0.15580  0.49651  1.0000
  C   C70       1.0  0.47220  0.15581  0.49943  1.0000
  C   C71       1.0  0.44438  0.21829  0.50023  1.0000
  C   C72       1.0  0.38880  0.21827  0.49888  1.0000
  C   C73       1.0  0.36099  0.28078  0.49925  1.0000
  C   C74       1.0  0.47219  0.28079  0.50176  1.0000
  C   C75       1.0  0.44435  0.34328  0.50240  1.0000
  C   C76       1.0  0.38878  0.34328  0.50120  1.0000
  C   C77       1.0  0.36098  0.40579  0.50114  1.0000
  C   C78       1.0  0.47218  0.40579  0.50340  1.0000
  C   C79       1.0  0.44437  0.46831  0.50348  1.0000
  C   C80       1.0  0.38879  0.46830  0.50236  1.0000
  C   C81       1.0  0.36098  0.53083  0.50151  1.0000
  C   C82       1.0  0.47219  0.53084  0.50381  1.0000
  C   C83       1.0  0.44437  0.59335  0.50311  1.0000
  C   C84       1.0  0.38879  0.59336  0.50193  1.0000
  C   C85       1.0  0.36100  0.65588  0.50020  1.0000
  C   C86       1.0  0.47220  0.65586  0.50263  1.0000
  C   C87       1.0  0.44438  0.71836  0.50123  1.0000
  C   C88       1.0  0.38880  0.71838  0.49994  1.0000
  C   C89       1.0  0.36101  0.78087  0.49769  1.0000
  C   C90       1.0  0.47220  0.78086  0.50039  1.0000
  C   C91       1.0  0.44440  0.84334  0.49887  1.0000
  C   C92       1.0  0.38884  0.84336  0.49741  1.0000
  C   C93       1.0  0.36104  0.90584  0.49522  1.0000
  C   C94       1.0  0.47220  0.90584  0.49836  1.0000
  C   C95       1.0  0.44440  0.96833  0.49751  1.0000
  C   C96       1.0  0.38885  0.96833  0.49584  1.0000
  C   C97       1.0  0.52776  0.03083  0.49802  1.0000
  C   C98       1.0  0.63892  0.03081  0.49474  1.0000
  C   C99       1.0  0.61114  0.09330  0.49660  1.0000
  C   C100      1.0  0.55558  0.09332  0.49814  1.0000
  C   C101      1.0  0.52777  0.15581  0.49945  1.0000
  C   C102      1.0  0.63896  0.15579  0.49659  1.0000
  C   C103      1.0  0.61117  0.21827  0.49894  1.0000
  C   C104      1.0  0.55559  0.21829  0.50027  1.0000
  C   C105      1.0  0.52778  0.28078  0.50177  1.0000
  C   C106      1.0  0.63897  0.28077  0.49932  1.0000
  C   C107      1.0  0.61118  0.34327  0.50125  1.0000
  C   C108      1.0  0.55561  0.34328  0.50242  1.0000
  C   C109      1.0  0.52778  0.40578  0.50340  1.0000
  C   C110      1.0  0.63899  0.40578  0.50121  1.0000
  C   C111      1.0  0.61118  0.46830  0.50239  1.0000
  C   C112      1.0  0.55560  0.46831  0.50349  1.0000
  C   C113      1.0  0.52777  0.53083  0.50381  1.0000
  C   C114      1.0  0.63899  0.53083  0.50154  1.0000
  C   C115      1.0  0.61118  0.59335  0.50195  1.0000
  C   C116      1.0  0.55559  0.59335  0.50312  1.0000
  C   C117      1.0  0.52777  0.65586  0.50265  1.0000
  C   C118      1.0  0.63897  0.65587  0.50026  1.0000
  C   C119      1.0  0.61117  0.71837  0.50003  1.0000
  C   C120      1.0  0.55559  0.71836  0.50128  1.0000
  C   C121      1.0  0.52778  0.78085  0.50042  1.0000
  C   C122      1.0  0.63896  0.78086  0.49781  1.0000
  C   C123      1.0  0.61113  0.84335  0.49754  1.0000
  C   C124      1.0  0.55557  0.84334  0.49894  1.0000
  C   C125      1.0  0.52777  0.90584  0.49840  1.0000
  C   C126      1.0  0.63893  0.90583  0.49541  1.0000
  C   C127      1.0  0.61112  0.96832  0.49599  1.0000
  C   C128      1.0  0.55557  0.96833  0.49757  1.0000
  C   C129      1.0  0.69440  0.03081  0.49160  1.0000
  C   C130      1.0  0.80546  0.03080  0.48614  1.0000
  C   C131      1.0  0.77770  0.09329  0.48830  1.0000
  C   C132      1.0  0.72221  0.09329  0.49099  1.0000
  C   C133      1.0  0.69448  0.15576  0.49404  1.0000
  C   C134      1.0  0.80552  0.15575  0.48900  1.0000
  C   C135      1.0  0.77780  0.21824  0.49205  1.0000
  C   C136      1.0  0.72227  0.21826  0.49450  1.0000
  C   C137      1.0  0.69452  0.28075  0.49725  1.0000
  C   C138      1.0  0.80563  0.28074  0.49253  1.0000
  C   C139      1.0  0.77787  0.34324  0.49500  1.0000
  C   C140      1.0  0.72234  0.34326  0.49733  1.0000
  C   C141      1.0  0.69455  0.40577  0.49924  1.0000
  C   C142      1.0  0.80564  0.40577  0.49461  1.0000
  C   C143      1.0  0.77786  0.46829  0.49613  1.0000
  C   C144      1.0  0.72233  0.46830  0.49846  1.0000
  C   C145      1.0  0.69454  0.53084  0.49950  1.0000
  C   C146      1.0  0.80561  0.53084  0.49463  1.0000
  C   C147      1.0  0.77784  0.59338  0.49517  1.0000
  C   C148      1.0  0.72231  0.59337  0.49775  1.0000
  C   C149      1.0  0.69451  0.65588  0.49806  1.0000
  C   C150      1.0  0.80563  0.65586  0.49255  1.0000
  C   C151      1.0  0.77782  0.71838  0.49256  1.0000
  C   C152      1.0  0.72230  0.71836  0.49549  1.0000
  C   C153      1.0  0.69451  0.78089  0.49544  1.0000
  C   C154      1.0  0.80558  0.78085  0.48946  1.0000
  C   C155      1.0  0.77778  0.84336  0.48940  1.0000
  C   C156      1.0  0.72229  0.84337  0.49248  1.0000
  C   C157      1.0  0.69446  0.90586  0.49251  1.0000
  C   C158      1.0  0.80550  0.90584  0.48656  1.0000
  C   C159      1.0  0.77768  0.96833  0.48705  1.0000
  C   C160      1.0  0.72218  0.96835  0.48994  1.0000
  C   C161      1.0  0.86100  0.03078  0.48452  1.0000
  C   C162      1.0  0.97218  0.03080  0.48291  1.0000
  C   C163      1.0  0.94438  0.09330  0.48404  1.0000
  C   C164      1.0  0.88882  0.09328  0.48491  1.0000
  C   C165      1.0  0.86107  0.15575  0.48712  1.0000
  C   C166      1.0  0.97220  0.15579  0.48475  1.0000
  C   C167      1.0  0.94442  0.21827  0.48614  1.0000
  C   C168      1.0  0.88889  0.21822  0.48775  1.0000
  C   C169      1.0  0.86116  0.28072  0.49024  1.0000
  C   C170      1.0  0.97221  0.28075  0.48675  1.0000
  C   C171      1.0  0.94446  0.34325  0.48836  1.0000
  C   C172      1.0  0.88895  0.34325  0.49025  1.0000
  C   C173      1.0  0.86117  0.40575  0.49223  1.0000
  C   C174      1.0  0.97221  0.40575  0.48883  1.0000
  C   C175      1.0  0.94445  0.46829  0.48971  1.0000
  C   C176      1.0  0.88892  0.46830  0.49141  1.0000
  C   C177      1.0  0.86113  0.53085  0.49214  1.0000
  C   C178      1.0  0.97221  0.53083  0.48863  1.0000
  C   C179      1.0  0.94445  0.59336  0.48769  1.0000
  C   C180      1.0  0.88891  0.59335  0.48982  1.0000
  C   C181      1.0  0.86114  0.65587  0.48959  1.0000
  C   C182      1.0  0.97222  0.65580  0.48498  1.0000
  C   C183      1.0  0.94443  0.71827  0.48397  1.0000
  C   C184      1.0  0.88892  0.71833  0.48644  1.0000
  C   C185      1.0  0.86110  0.78084  0.48647  1.0000
  C   C186      1.0  0.97219  0.78077  0.48218  1.0000
  C   C187      1.0  0.94438  0.84327  0.48222  1.0000
  C   C188      1.0  0.88884  0.84330  0.48405  1.0000
  C   C189      1.0  0.86102  0.90579  0.48436  1.0000
  C   C190      1.0  0.97220  0.90579  0.48171  1.0000
  C   C191      1.0  0.94438  0.96829  0.48242  1.0000
  C   C192      1.0  0.88880  0.96829  0.48340  1.0000
  C   C193      1.0  0.97277  0.21224  0.62736  1.0000
  C   C194      1.0  0.02786  0.21214  0.62735  1.0000
  C   C195      1.0  0.04405  0.14146  0.62610  1.0000
  C   C196      1.0  0.95642  0.14163  0.62614  1.0000
  C   C197      1.0  0.83722  0.96621  0.62701  1.0000
  C   C198      1.0  0.83728  0.03746  0.62714  1.0000
  C   C199      1.0  0.89192  0.05844  0.62605  1.0000
  C   C200      1.0  0.89181  0.94512  0.62592  1.0000
  C   C201      1.0  0.02733  0.79079  0.62744  1.0000
  C   C202      1.0  0.97224  0.79091  0.62753  1.0000
  C   C203      1.0  0.95609  0.86162  0.62636  1.0000
  C   C204      1.0  0.04369  0.86143  0.62622  1.0000
  C   C205      1.0  0.16295  0.03680  0.62691  1.0000
  C   C206      1.0  0.16282  0.96555  0.62671  1.0000
  C   C207      1.0  0.10819  0.94466  0.62572  1.0000
  C   C208      1.0  0.10837  0.05798  0.62590  1.0000
  C   C209      1.0  0.79059  0.92976  0.62758  1.0000
  C   C210      1.0  0.74395  0.96628  0.62828  1.0000
  C   C211      1.0  0.74399  0.03741  0.62840  1.0000
  C   C212      1.0  0.79065  0.07391  0.62785  1.0000
  C   C213      1.0  0.94467  0.27261  0.62796  1.0000
  C   C214      1.0  0.97294  0.33293  0.62843  1.0000
  C   C215      1.0  0.02792  0.33283  0.62839  1.0000
  C   C216      1.0  0.05607  0.27242  0.62790  1.0000
  C   C217      1.0  0.20969  0.07305  0.62764  1.0000
  C   C218      1.0  0.25624  0.03632  0.62817  1.0000
  C   C219      1.0  0.25608  0.96518  0.62802  1.0000
  C   C220      1.0  0.20935  0.92891  0.62729  1.0000
  C   C221      1.0  0.05541  0.73040  0.62786  1.0000
  C   C222      1.0  0.02713  0.67009  0.62833  1.0000
  C   C223      1.0  0.97214  0.67019  0.62843  1.0000
  C   C224      1.0  0.94400  0.73062  0.62804  1.0000
  N   N1        1.0  0.00018  0.10100  0.62525  1.0000
  N   N2        1.0  0.92321  0.00174  0.62522  1.0000
  N   N3        1.0  0.90671  0.12271  0.62632  1.0000
  N   N4        1.0  0.99995  0.90207  0.62555  1.0000
  N   N5        1.0  0.90645  0.88080  0.62622  1.0000
  N   N6        1.0  0.07692  0.00141  0.62510  1.0000
  N   N7        1.0  0.09371  0.12231  0.62623  1.0000
  N   N8        1.0  0.09339  0.88040  0.62600  1.0000
  H   H1        1.0  0.09844  0.27182  0.62717  1.0000
  H   H2        1.0  0.90230  0.27217  0.62732  1.0000
  H   H3        1.0  0.79105  0.12873  0.62732  1.0000
  H   H4        1.0  0.79099  0.87496  0.62679  1.0000
  H   H5        1.0  0.90164  0.73122  0.62748  1.0000
  H   H6        1.0  0.09778  0.73082  0.62714  1.0000
  H   H7        1.0  0.20877  0.87410  0.62653  1.0000
  H   H8        1.0  0.20946  0.12787  0.62716  1.0000
  H   H9        1.0  0.29307  0.93827  0.62767  1.0000
  H   H10       1.0  0.29337  0.06291  0.62796  1.0000
  H   H11       1.0  0.04777  0.62211  0.62786  1.0000
  H   H12       1.0  0.95141  0.62228  0.62801  1.0000
  H   H13       1.0  0.70688  0.93957  0.62791  1.0000
  H   H14       1.0  0.70695  0.06420  0.62817  1.0000
  H   H15       1.0  0.95232  0.38091  0.62812  1.0000
  H   H16       1.0  0.04869  0.38072  0.62803  1.0000
  Cu  Cu1       1.0  0.00007  0.00156  0.62415  1.0000
