data_image0
_chemical_formula_structural       C224N8H16CuO2C5H4
_chemical_formula_sum              "C229 N8 H20 Cu1 O2"
_cell_length_a       25.7292
_cell_length_b       19.8864
_cell_length_c       24
_cell_angle_alpha    90
_cell_angle_beta     90
_cell_angle_gamma    90

_space_group_name_H-M_alt    "P 1"
_space_group_IT_number       1

loop_
  _space_group_symop_operation_xyz
  'x, y, z'

loop_
  _atom_site_type_symbol
  _atom_site_label
  _atom_site_symmetry_multiplicity
  _atom_site_fract_x
  _atom_site_fract_y
  _atom_site_fract_z
  _atom_site_occupancy
  C   C1        1.0  0.02781  0.03077  0.48265  1.0000
  C   C2        1.0  0.13897  0.03077  0.48420  1.0000
  C   C3        1.0  0.11115  0.09327  0.48456  1.0000
  C   C4        1.0  0.05561  0.09327  0.48367  1.0000
  C   C5        1.0  0.02778  0.15575  0.48440  1.0000
  C   C6        1.0  0.13890  0.15573  0.48683  1.0000
  C   C7        1.0  0.11108  0.21820  0.48733  1.0000
  C   C8        1.0  0.05556  0.21825  0.48572  1.0000
  C   C9        1.0  0.02776  0.28072  0.48627  1.0000
  C   C10       1.0  0.13882  0.28070  0.48978  1.0000
  C   C11       1.0  0.11104  0.34322  0.48966  1.0000
  C   C12       1.0  0.05553  0.34321  0.48774  1.0000
  C   C13       1.0  0.02778  0.40571  0.48802  1.0000
  C   C14       1.0  0.13881  0.40573  0.49158  1.0000
  C   C15       1.0  0.11106  0.46828  0.49063  1.0000
  C   C16       1.0  0.05553  0.46825  0.48884  1.0000
  C   C17       1.0  0.02776  0.53080  0.48785  1.0000
  C   C18       1.0  0.13882  0.53084  0.49145  1.0000
  C   C19       1.0  0.11104  0.59335  0.48926  1.0000
  C   C20       1.0  0.05551  0.59335  0.48714  1.0000
  C   C21       1.0  0.02775  0.65581  0.48476  1.0000
  C   C22       1.0  0.13882  0.65587  0.48928  1.0000
  C   C23       1.0  0.11105  0.71833  0.48618  1.0000
  C   C24       1.0  0.05554  0.71828  0.48376  1.0000
  C   C25       1.0  0.02779  0.78078  0.48199  1.0000
  C   C26       1.0  0.13887  0.78083  0.48618  1.0000
  C   C27       1.0  0.11116  0.84330  0.48367  1.0000
  C   C28       1.0  0.05561  0.84326  0.48192  1.0000
  C   C29       1.0  0.02779  0.90577  0.48147  1.0000
  C   C30       1.0  0.13897  0.90578  0.48389  1.0000
  C   C31       1.0  0.11118  0.96828  0.48292  1.0000
  C   C32       1.0  0.05561  0.96826  0.48205  1.0000
  C   C33       1.0  0.19450  0.03078  0.48606  1.0000
  C   C34       1.0  0.30555  0.03078  0.49184  1.0000
  C   C35       1.0  0.27775  0.09326  0.49120  1.0000
  C   C36       1.0  0.22226  0.09326  0.48838  1.0000
  C   C37       1.0  0.19444  0.15573  0.48893  1.0000
  C   C38       1.0  0.30548  0.15572  0.49417  1.0000
  C   C39       1.0  0.27769  0.21823  0.49452  1.0000
  C   C40       1.0  0.22216  0.21821  0.49197  1.0000
  C   C41       1.0  0.19434  0.28071  0.49225  1.0000
  C   C42       1.0  0.30544  0.28073  0.49712  1.0000
  C   C43       1.0  0.27761  0.34324  0.49708  1.0000
  C   C44       1.0  0.22209  0.34322  0.49468  1.0000
  C   C45       1.0  0.19432  0.40576  0.49409  1.0000
  C   C46       1.0  0.30540  0.40575  0.49883  1.0000
  C   C47       1.0  0.27761  0.46828  0.49805  1.0000
  C   C48       1.0  0.22208  0.46829  0.49561  1.0000
  C   C49       1.0  0.19433  0.53083  0.49406  1.0000
  C   C50       1.0  0.30541  0.53079  0.49905  1.0000
  C   C51       1.0  0.27765  0.59331  0.49736  1.0000
  C   C52       1.0  0.22211  0.59335  0.49477  1.0000
  C   C53       1.0  0.19433  0.65585  0.49227  1.0000
  C   C54       1.0  0.30546  0.65581  0.49766  1.0000
  C   C55       1.0  0.27768  0.71831  0.49524  1.0000
  C   C56       1.0  0.22215  0.71835  0.49236  1.0000
  C   C57       1.0  0.19439  0.78083  0.48925  1.0000
  C   C58       1.0  0.30547  0.78084  0.49523  1.0000
  C   C59       1.0  0.27769  0.84333  0.49237  1.0000
  C   C60       1.0  0.22219  0.84334  0.48922  1.0000
  C   C61       1.0  0.19449  0.90582  0.48628  1.0000
  C   C62       1.0  0.30551  0.90583  0.49255  1.0000
  C   C63       1.0  0.27778  0.96831  0.49008  1.0000
  C   C64       1.0  0.22229  0.96831  0.48700  1.0000
  C   C65       1.0  0.36104  0.03076  0.49494  1.0000
  C   C66       1.0  0.47223  0.03077  0.49813  1.0000
  C   C67       1.0  0.44441  0.09326  0.49819  1.0000
  C   C68       1.0  0.38884  0.09325  0.49670  1.0000
  C   C69       1.0  0.36101  0.15573  0.49662  1.0000
  C   C70       1.0  0.47221  0.15575  0.49936  1.0000
  C   C71       1.0  0.44439  0.21824  0.49999  1.0000
  C   C72       1.0  0.38881  0.21823  0.49875  1.0000
  C   C73       1.0  0.36099  0.28073  0.49903  1.0000
  C   C74       1.0  0.47219  0.28076  0.50132  1.0000
  C   C75       1.0  0.44435  0.34325  0.50184  1.0000
  C   C76       1.0  0.38877  0.34324  0.50075  1.0000
  C   C77       1.0  0.36096  0.40575  0.50066  1.0000
  C   C78       1.0  0.47219  0.40574  0.50275  1.0000
  C   C79       1.0  0.44437  0.46824  0.50281  1.0000
  C   C80       1.0  0.38878  0.46825  0.50177  1.0000
  C   C81       1.0  0.36097  0.53078  0.50094  1.0000
  C   C82       1.0  0.47221  0.53075  0.50304  1.0000
  C   C83       1.0  0.44439  0.59326  0.50230  1.0000
  C   C84       1.0  0.38880  0.59328  0.50122  1.0000
  C   C85       1.0  0.36101  0.65580  0.49966  1.0000
  C   C86       1.0  0.47221  0.65576  0.50187  1.0000
  C   C87       1.0  0.44439  0.71827  0.50068  1.0000
  C   C88       1.0  0.38881  0.71830  0.49952  1.0000
  C   C89       1.0  0.36102  0.78081  0.49754  1.0000
  C   C90       1.0  0.47221  0.78077  0.49999  1.0000
  C   C91       1.0  0.44440  0.84328  0.49873  1.0000
  C   C92       1.0  0.38885  0.84329  0.49740  1.0000
  C   C93       1.0  0.36104  0.90578  0.49544  1.0000
  C   C94       1.0  0.47221  0.90577  0.49834  1.0000
  C   C95       1.0  0.44441  0.96828  0.49766  1.0000
  C   C96       1.0  0.38885  0.96827  0.49612  1.0000
  C   C97       1.0  0.52779  0.03076  0.49813  1.0000
  C   C98       1.0  0.63895  0.03075  0.49501  1.0000
  C   C99       1.0  0.61116  0.09325  0.49675  1.0000
  C   C100      1.0  0.55560  0.09326  0.49822  1.0000
  C   C101      1.0  0.52779  0.15575  0.49938  1.0000
  C   C102      1.0  0.63898  0.15574  0.49671  1.0000
  C   C103      1.0  0.61118  0.21822  0.49883  1.0000
  C   C104      1.0  0.55560  0.21825  0.50005  1.0000
  C   C105      1.0  0.52779  0.28075  0.50135  1.0000
  C   C106      1.0  0.63900  0.28072  0.49913  1.0000
  C   C107      1.0  0.61122  0.34322  0.50091  1.0000
  C   C108      1.0  0.55564  0.34324  0.50191  1.0000
  C   C109      1.0  0.52780  0.40573  0.50278  1.0000
  C   C110      1.0  0.63902  0.40572  0.50088  1.0000
  C   C111      1.0  0.61121  0.46823  0.50194  1.0000
  C   C112      1.0  0.55563  0.46824  0.50290  1.0000
  C   C113      1.0  0.52779  0.53075  0.50310  1.0000
  C   C114      1.0  0.63902  0.53075  0.50112  1.0000
  C   C115      1.0  0.61119  0.59326  0.50140  1.0000
  C   C116      1.0  0.55561  0.59326  0.50241  1.0000
  C   C117      1.0  0.52779  0.65576  0.50190  1.0000
  C   C118      1.0  0.63898  0.65578  0.49981  1.0000
  C   C119      1.0  0.61118  0.71828  0.49956  1.0000
  C   C120      1.0  0.55560  0.71826  0.50069  1.0000
  C   C121      1.0  0.52778  0.78077  0.49998  1.0000
  C   C122      1.0  0.63897  0.78078  0.49757  1.0000
  C   C123      1.0  0.61115  0.84327  0.49743  1.0000
  C   C124      1.0  0.55559  0.84327  0.49874  1.0000
  C   C125      1.0  0.52779  0.90577  0.49835  1.0000
  C   C126      1.0  0.63895  0.90575  0.49550  1.0000
  C   C127      1.0  0.61115  0.96825  0.49616  1.0000
  C   C128      1.0  0.55560  0.96826  0.49767  1.0000
  C   C129      1.0  0.69444  0.03074  0.49202  1.0000
  C   C130      1.0  0.80549  0.03076  0.48666  1.0000
  C   C131      1.0  0.77771  0.09323  0.48872  1.0000
  C   C132      1.0  0.72223  0.09322  0.49137  1.0000
  C   C133      1.0  0.69451  0.15571  0.49428  1.0000
  C   C134      1.0  0.80555  0.15570  0.48925  1.0000
  C   C135      1.0  0.77784  0.21819  0.49216  1.0000
  C   C136      1.0  0.72232  0.21821  0.49463  1.0000
  C   C137      1.0  0.69456  0.28071  0.49718  1.0000
  C   C138      1.0  0.80566  0.28070  0.49239  1.0000
  C   C139      1.0  0.77790  0.34321  0.49471  1.0000
  C   C140      1.0  0.72238  0.34321  0.49714  1.0000
  C   C141      1.0  0.69458  0.40571  0.49898  1.0000
  C   C142      1.0  0.80566  0.40575  0.49409  1.0000
  C   C143      1.0  0.77788  0.46827  0.49566  1.0000
  C   C144      1.0  0.72236  0.46825  0.49816  1.0000
  C   C145      1.0  0.69457  0.53076  0.49920  1.0000
  C   C146      1.0  0.80564  0.53080  0.49412  1.0000
  C   C147      1.0  0.77786  0.59333  0.49487  1.0000
  C   C148      1.0  0.72234  0.59329  0.49751  1.0000
  C   C149      1.0  0.69452  0.65580  0.49780  1.0000
  C   C150      1.0  0.80565  0.65583  0.49236  1.0000
  C   C151      1.0  0.77784  0.71834  0.49248  1.0000
  C   C152      1.0  0.72231  0.71830  0.49533  1.0000
  C   C153      1.0  0.69453  0.78083  0.49532  1.0000
  C   C154      1.0  0.80561  0.78082  0.48954  1.0000
  C   C155      1.0  0.77782  0.84333  0.48961  1.0000
  C   C156      1.0  0.72232  0.84330  0.49259  1.0000
  C   C157      1.0  0.69448  0.90579  0.49274  1.0000
  C   C158      1.0  0.80554  0.90581  0.48695  1.0000
  C   C159      1.0  0.77772  0.96829  0.48759  1.0000
  C   C160      1.0  0.72222  0.96827  0.49041  1.0000
  C   C161      1.0  0.86103  0.03075  0.48490  1.0000
  C   C162      1.0  0.97221  0.03077  0.48285  1.0000
  C   C163      1.0  0.94440  0.09327  0.48402  1.0000
  C   C164      1.0  0.88884  0.09325  0.48509  1.0000
  C   C165      1.0  0.86109  0.15572  0.48722  1.0000
  C   C166      1.0  0.97221  0.15576  0.48455  1.0000
  C   C167      1.0  0.94443  0.21824  0.48591  1.0000
  C   C168      1.0  0.88891  0.21819  0.48762  1.0000
  C   C169      1.0  0.86118  0.28070  0.48996  1.0000
  C   C170      1.0  0.97223  0.28072  0.48633  1.0000
  C   C171      1.0  0.94447  0.34321  0.48778  1.0000
  C   C172      1.0  0.88896  0.34322  0.48971  1.0000
  C   C173      1.0  0.86118  0.40573  0.49157  1.0000
  C   C174      1.0  0.97223  0.40571  0.48805  1.0000
  C   C175      1.0  0.94446  0.46825  0.48889  1.0000
  C   C176      1.0  0.88893  0.46827  0.49066  1.0000
  C   C177      1.0  0.86115  0.53082  0.49150  1.0000
  C   C178      1.0  0.97223  0.53079  0.48789  1.0000
  C   C179      1.0  0.94447  0.59333  0.48725  1.0000
  C   C180      1.0  0.88893  0.59333  0.48937  1.0000
  C   C181      1.0  0.86116  0.65585  0.48940  1.0000
  C   C182      1.0  0.97223  0.65580  0.48486  1.0000
  C   C183      1.0  0.94445  0.71827  0.48398  1.0000
  C   C184      1.0  0.88894  0.71831  0.48643  1.0000
  C   C185      1.0  0.86113  0.78081  0.48657  1.0000
  C   C186      1.0  0.97222  0.78076  0.48217  1.0000
  C   C187      1.0  0.94441  0.84325  0.48229  1.0000
  C   C188      1.0  0.88887  0.84328  0.48423  1.0000
  C   C189      1.0  0.86106  0.90577  0.48467  1.0000
  C   C190      1.0  0.97221  0.90577  0.48170  1.0000
  C   C191      1.0  0.94441  0.96827  0.48250  1.0000
  C   C192      1.0  0.88883  0.96828  0.48370  1.0000
  C   C193      1.0  0.97264  0.21224  0.62769  1.0000
  C   C194      1.0  0.02769  0.21219  0.62772  1.0000
  C   C195      1.0  0.04389  0.14146  0.62585  1.0000
  C   C196      1.0  0.95639  0.14156  0.62616  1.0000
  C   C197      1.0  0.83730  0.96618  0.62873  1.0000
  C   C198      1.0  0.83732  0.03742  0.62856  1.0000
  C   C199      1.0  0.89198  0.05838  0.62716  1.0000
  C   C200      1.0  0.89188  0.94516  0.62748  1.0000
  C   C201      1.0  0.02744  0.79100  0.62663  1.0000
  C   C202      1.0  0.97237  0.79117  0.62804  1.0000
  C   C203      1.0  0.95622  0.86183  0.62672  1.0000
  C   C204      1.0  0.04373  0.86158  0.62428  1.0000
  C   C205      1.0  0.16280  0.03688  0.62681  1.0000
  C   C206      1.0  0.16272  0.96562  0.62553  1.0000
  C   C207      1.0  0.10814  0.94478  0.62313  1.0000
  C   C208      1.0  0.10819  0.05805  0.62500  1.0000
  C   C209      1.0  0.79072  0.92963  0.62950  1.0000
  C   C210      1.0  0.74405  0.96606  0.62996  1.0000
  C   C211      1.0  0.74406  0.03719  0.62974  1.0000
  C   C212      1.0  0.79066  0.07382  0.62911  1.0000
  C   C213      1.0  0.94444  0.27250  0.62838  1.0000
  C   C214      1.0  0.97262  0.33290  0.62884  1.0000
  C   C215      1.0  0.02758  0.33289  0.62902  1.0000
  C   C216      1.0  0.05583  0.27250  0.62858  1.0000
  C   C217      1.0  0.20948  0.07317  0.62930  1.0000
  C   C218      1.0  0.25605  0.03653  0.63072  1.0000
  C   C219      1.0  0.25595  0.96538  0.62973  1.0000
  C   C220      1.0  0.20929  0.92906  0.62707  1.0000
  C   C221      1.0  0.05548  0.73056  0.62746  1.0000
  C   C222      1.0  0.02718  0.67031  0.62945  1.0000
  C   C223      1.0  0.97220  0.67050  0.63051  1.0000
  C   C224      1.0  0.94410  0.73094  0.62987  1.0000
  N   N1        1.0  0.00009  0.10105  0.62434  1.0000
  N   N2        1.0  0.92329  0.00177  0.62646  1.0000
  N   N3        1.0  0.90670  0.12267  0.62698  1.0000
  N   N4        1.0  0.99999  0.90223  0.62447  1.0000
  N   N5        1.0  0.90655  0.88091  0.62766  1.0000
  N   N6        1.0  0.07690  0.00152  0.62266  1.0000
  N   N7        1.0  0.09352  0.12236  0.62602  1.0000
  N   N8        1.0  0.09338  0.88056  0.62311  1.0000
  H   H1        1.0  0.09821  0.27210  0.62825  1.0000
  H   H2        1.0  0.90206  0.27200  0.62783  1.0000
  H   H3        1.0  0.79095  0.12864  0.62835  1.0000
  H   H4        1.0  0.79110  0.87481  0.62903  1.0000
  H   H5        1.0  0.90173  0.73159  0.63030  1.0000
  H   H6        1.0  0.09784  0.73086  0.62582  1.0000
  H   H7        1.0  0.20893  0.87425  0.62537  1.0000
  H   H8        1.0  0.20923  0.12799  0.62948  1.0000
  H   H9        1.0  0.29297  0.93855  0.63006  1.0000
  H   H10       1.0  0.29313  0.06319  0.63198  1.0000
  H   H11       1.0  0.04777  0.62230  0.62934  1.0000
  H   H12       1.0  0.95140  0.62265  0.63123  1.0000
  H   H13       1.0  0.70700  0.93926  0.62964  1.0000
  H   H14       1.0  0.70701  0.06390  0.62933  1.0000
  H   H15       1.0  0.95189  0.38081  0.62842  1.0000
  H   H16       1.0  0.04828  0.38082  0.62882  1.0000
  Cu  Cu1       1.0  0.00008  0.00173  0.62339  1.0000
  O   O1        1.0  0.02942  0.88085  0.76698  1.0000
  O   O2        1.0  0.01651  0.06021  0.76057  1.0000
  C   C225      1.0  0.04667  0.94733  0.76508  1.0000
  C   C226      1.0  0.10047  0.94843  0.76367  1.0000
  C   C227      1.0  0.11733  0.88019  0.76463  1.0000
  C   C228      1.0  0.07290  0.84144  0.76649  1.0000
  C   C229      1.0  0.00691  0.99942  0.76392  1.0000
  H   H17       1.0  0.12416  0.99352  0.76144  1.0000
  H   H18       1.0  0.15703  0.86174  0.76302  1.0000
  H   H19       1.0  0.06607  0.78758  0.76655  1.0000
  H   H20       1.0  0.96618  0.97995  0.76574  1.0000
