data_image0
_chemical_formula_structural       C32N8H16Cu
_chemical_formula_sum              "C32 N8 H16 Cu1"
_cell_length_a       22.0194
_cell_length_b       22.0194
_cell_length_c       15
_cell_angle_alpha    90
_cell_angle_beta     90
_cell_angle_gamma    90

_space_group_name_H-M_alt    "P 1"
_space_group_IT_number       1

loop_
  _space_group_symop_operation_xyz
  'x, y, z'

loop_
  _atom_site_type_symbol
  _atom_site_label
  _atom_site_symmetry_multiplicity
  _atom_site_fract_x
  _atom_site_fract_y
  _atom_site_fract_z
  _atom_site_occupancy
  C   C1        1.0  0.36346  0.63618  0.50524  1.0000
  C   C2        1.0  0.41583  0.67353  0.50515  1.0000
  C   C3        1.0  0.46835  0.63262  0.50575  1.0000
  C   C4        1.0  0.38505  0.57325  0.50584  1.0000
  C   C5        1.0  0.36375  0.36348  0.50370  1.0000
  C   C6        1.0  0.32644  0.41587  0.50380  1.0000
  C   C7        1.0  0.36738  0.46834  0.50551  1.0000
  C   C8        1.0  0.42670  0.38501  0.50534  1.0000
  C   C9        1.0  0.63653  0.36383  0.50513  1.0000
  C   C10       1.0  0.58416  0.32648  0.50505  1.0000
  C   C11       1.0  0.53164  0.36739  0.50561  1.0000
  C   C12       1.0  0.61494  0.42676  0.50573  1.0000
  C   C13       1.0  0.63624  0.63653  0.50374  1.0000
  C   C14       1.0  0.67355  0.58414  0.50376  1.0000
  C   C15       1.0  0.63261  0.53167  0.50547  1.0000
  C   C16       1.0  0.57329  0.61500  0.50541  1.0000
  C   C17       1.0  0.33853  0.30501  0.50130  1.0000
  C   C18       1.0  0.27501  0.30024  0.49876  1.0000
  C   C19       1.0  0.23770  0.35261  0.49881  1.0000
  C   C20       1.0  0.26294  0.41110  0.50143  1.0000
  C   C21       1.0  0.30494  0.66130  0.50442  1.0000
  C   C22       1.0  0.30011  0.72484  0.50351  1.0000
  C   C23       1.0  0.35243  0.76221  0.50351  1.0000
  C   C24       1.0  0.41098  0.73703  0.50431  1.0000
  C   C25       1.0  0.66145  0.69500  0.50137  1.0000
  C   C26       1.0  0.72497  0.69977  0.49878  1.0000
  C   C27       1.0  0.76229  0.64741  0.49871  1.0000
  C   C28       1.0  0.73705  0.58892  0.50132  1.0000
  C   C29       1.0  0.69505  0.33871  0.50440  1.0000
  C   C30       1.0  0.69989  0.27517  0.50357  1.0000
  C   C31       1.0  0.64757  0.23779  0.50356  1.0000
  C   C32       1.0  0.58901  0.26298  0.50430  1.0000
  N   N1        1.0  0.44796  0.57308  0.50628  1.0000
  N   N2        1.0  0.42689  0.44793  0.50638  1.0000
  N   N3        1.0  0.34768  0.52559  0.50556  1.0000
  N   N4        1.0  0.55203  0.42693  0.50614  1.0000
  N   N5        1.0  0.47438  0.34767  0.50528  1.0000
  N   N6        1.0  0.57310  0.55208  0.50640  1.0000
  N   N7        1.0  0.52561  0.65234  0.50540  1.0000
  N   N8        1.0  0.65231  0.47441  0.50547  1.0000
  H   H1        1.0  0.45156  0.76549  0.50424  1.0000
  H   H2        1.0  0.26489  0.63212  0.50449  1.0000
  H   H3        1.0  0.23454  0.45171  0.50138  1.0000
  H   H4        1.0  0.36769  0.26494  0.50108  1.0000
  H   H5        1.0  0.54843  0.23452  0.50425  1.0000
  H   H6        1.0  0.73509  0.36789  0.50447  1.0000
  H   H7        1.0  0.76545  0.54830  0.50119  1.0000
  H   H8        1.0  0.63229  0.73506  0.50123  1.0000
  H   H9        1.0  0.81157  0.65284  0.49649  1.0000
  H   H10       1.0  0.74618  0.74458  0.49656  1.0000
  H   H11       1.0  0.74472  0.25394  0.50293  1.0000
  H   H12       1.0  0.65305  0.18850  0.50289  1.0000
  H   H13       1.0  0.25381  0.25543  0.49649  1.0000
  H   H14       1.0  0.18842  0.34717  0.49662  1.0000
  H   H15       1.0  0.25528  0.74607  0.50276  1.0000
  H   H16       1.0  0.34694  0.81151  0.50272  1.0000
  Cu  Cu1       1.0  0.49999  0.50000  0.50666  1.0000
