data_image0
_chemical_formula_structural       C32N8H16CuO2C5H4
_chemical_formula_sum              "C37 N8 H20 Cu1 O2"
_cell_length_a       22.0194
_cell_length_b       22.0194
_cell_length_c       15
_cell_angle_alpha    90
_cell_angle_beta     90
_cell_angle_gamma    90

_space_group_name_H-M_alt    "P 1"
_space_group_IT_number       1

loop_
  _space_group_symop_operation_xyz
  'x, y, z'

loop_
  _atom_site_type_symbol
  _atom_site_label
  _atom_site_symmetry_multiplicity
  _atom_site_fract_x
  _atom_site_fract_y
  _atom_site_fract_z
  _atom_site_occupancy
  C   C1        1.0  0.36444  0.63468  0.50006  1.0000
  C   C2        1.0  0.41674  0.67206  0.49942  1.0000
  C   C3        1.0  0.46926  0.63117  0.49545  1.0000
  C   C4        1.0  0.38615  0.57177  0.49641  1.0000
  C   C5        1.0  0.36496  0.36196  0.49240  1.0000
  C   C6        1.0  0.32778  0.41438  0.49673  1.0000
  C   C7        1.0  0.36869  0.46683  0.49461  1.0000
  C   C8        1.0  0.42786  0.38353  0.48781  1.0000
  C   C9        1.0  0.63756  0.36292  0.47902  1.0000
  C   C10       1.0  0.58527  0.32548  0.47959  1.0000
  C   C11       1.0  0.53272  0.36627  0.48045  1.0000
  C   C12       1.0  0.61588  0.42580  0.47954  1.0000
  C   C13       1.0  0.63710  0.63532  0.49559  1.0000
  C   C14       1.0  0.67446  0.58305  0.49123  1.0000
  C   C15       1.0  0.63349  0.53067  0.48623  1.0000
  C   C16       1.0  0.57412  0.61373  0.49294  1.0000
  C   C17       1.0  0.33952  0.30357  0.49347  1.0000
  C   C18       1.0  0.27605  0.29901  0.49907  1.0000
  C   C19       1.0  0.23892  0.35142  0.50350  1.0000
  C   C20       1.0  0.26437  0.40983  0.50238  1.0000
  C   C21       1.0  0.30596  0.65972  0.50420  1.0000
  C   C22       1.0  0.30112  0.72324  0.50762  1.0000
  C   C23       1.0  0.35341  0.76060  0.50692  1.0000
  C   C24       1.0  0.41194  0.73548  0.50288  1.0000
  C   C25       1.0  0.66229  0.69367  0.50169  1.0000
  C   C26       1.0  0.72583  0.69841  0.50308  1.0000
  C   C27       1.0  0.76317  0.64617  0.49836  1.0000
  C   C28       1.0  0.73795  0.58778  0.49238  1.0000
  C   C29       1.0  0.69607  0.33788  0.48199  1.0000
  C   C30       1.0  0.70099  0.27440  0.48571  1.0000
  C   C31       1.0  0.64869  0.23694  0.48628  1.0000
  C   C32       1.0  0.59016  0.26204  0.48314  1.0000
  N   N1        1.0  0.44895  0.57171  0.49288  1.0000
  N   N2        1.0  0.42809  0.44649  0.48955  1.0000
  N   N3        1.0  0.34892  0.52405  0.49743  1.0000
  N   N4        1.0  0.55301  0.42581  0.48005  1.0000
  N   N5        1.0  0.47555  0.34636  0.48357  1.0000
  N   N6        1.0  0.57399  0.55100  0.48734  1.0000
  N   N7        1.0  0.52642  0.65099  0.49561  1.0000
  N   N8        1.0  0.65319  0.47348  0.48219  1.0000
  H   H1        1.0  0.45254  0.76387  0.50250  1.0000
  H   H2        1.0  0.26598  0.63046  0.50484  1.0000
  H   H3        1.0  0.23629  0.45058  0.50579  1.0000
  H   H4        1.0  0.36839  0.26336  0.49005  1.0000
  H   H5        1.0  0.54956  0.23361  0.48417  1.0000
  H   H6        1.0  0.73604  0.36717  0.48220  1.0000
  H   H7        1.0  0.76637  0.54727  0.48868  1.0000
  H   H8        1.0  0.63312  0.73364  0.50531  1.0000
  H   H9        1.0  0.81247  0.65159  0.49940  1.0000
  H   H10       1.0  0.74704  0.74313  0.50781  1.0000
  H   H11       1.0  0.74587  0.25334  0.48842  1.0000
  H   H12       1.0  0.65423  0.18769  0.48942  1.0000
  H   H13       1.0  0.25474  0.25423  0.50016  1.0000
  H   H14       1.0  0.18969  0.34610  0.50773  1.0000
  H   H15       1.0  0.25628  0.74434  0.51096  1.0000
  H   H16       1.0  0.34796  0.80985  0.50974  1.0000
  Cu  Cu1       1.0  0.50105  0.49883  0.48715  1.0000
  O   O1        1.0  0.51579  0.38256  0.71306  1.0000
  O   O2        1.0  0.50042  0.54462  0.70999  1.0000
  C   C33       1.0  0.53602  0.44261  0.71170  1.0000
  C   C34       1.0  0.59886  0.44354  0.70783  1.0000
  C   C35       1.0  0.61848  0.38184  0.70677  1.0000
  C   C36       1.0  0.56651  0.34690  0.70982  1.0000
  C   C37       1.0  0.48944  0.48960  0.71286  1.0000
  H   H17       1.0  0.62659  0.48423  0.70476  1.0000
  H   H18       1.0  0.66473  0.36499  0.70247  1.0000
  H   H19       1.0  0.55849  0.29828  0.70885  1.0000
  H   H20       1.0  0.44196  0.47173  0.71576  1.0000
