data_image0
_chemical_formula_structural       C32N8H16CuO4C10H10
_chemical_formula_sum              "C42 N8 H26 Cu1 O4"
_cell_length_a       22.0194
_cell_length_b       22.0194
_cell_length_c       15
_cell_angle_alpha    90
_cell_angle_beta     90
_cell_angle_gamma    90

_space_group_name_H-M_alt    "P 1"
_space_group_IT_number       1

loop_
  _space_group_symop_operation_xyz
  'x, y, z'

loop_
  _atom_site_type_symbol
  _atom_site_label
  _atom_site_symmetry_multiplicity
  _atom_site_fract_x
  _atom_site_fract_y
  _atom_site_fract_z
  _atom_site_occupancy
  C   C1        1.0  0.35747  0.63589  0.50117  1.0000
  C   C2        1.0  0.40954  0.67353  0.50544  1.0000
  C   C3        1.0  0.46233  0.63304  0.50337  1.0000
  C   C4        1.0  0.37962  0.57313  0.49784  1.0000
  C   C5        1.0  0.36040  0.36321  0.50166  1.0000
  C   C6        1.0  0.32252  0.41517  0.50066  1.0000
  C   C7        1.0  0.36297  0.46806  0.49762  1.0000
  C   C8        1.0  0.42320  0.38547  0.49903  1.0000
  C   C9        1.0  0.63326  0.36594  0.49812  1.0000
  C   C10       1.0  0.58115  0.32826  0.50020  1.0000
  C   C11       1.0  0.52833  0.36886  0.49774  1.0000
  C   C12       1.0  0.61108  0.42872  0.49513  1.0000
  C   C13       1.0  0.63010  0.63871  0.50176  1.0000
  C   C14       1.0  0.66796  0.58674  0.49699  1.0000
  C   C15       1.0  0.62761  0.53383  0.49673  1.0000
  C   C16       1.0  0.56744  0.61647  0.50315  1.0000
  C   C17       1.0  0.33578  0.30454  0.50460  1.0000
  C   C18       1.0  0.27226  0.29916  0.50659  1.0000
  C   C19       1.0  0.23442  0.35109  0.50574  1.0000
  C   C20       1.0  0.25910  0.40984  0.50287  1.0000
  C   C21       1.0  0.29885  0.66060  0.50438  1.0000
  C   C22       1.0  0.29357  0.72387  0.51268  1.0000
  C   C23       1.0  0.34564  0.76150  0.51732  1.0000
  C   C24       1.0  0.40432  0.73677  0.51346  1.0000
  C   C25       1.0  0.65473  0.69740  0.50550  1.0000
  C   C26       1.0  0.71819  0.70293  0.50462  1.0000
  C   C27       1.0  0.75606  0.65101  0.49980  1.0000
  C   C28       1.0  0.73145  0.59228  0.49579  1.0000
  C   C29       1.0  0.69192  0.34123  0.49987  1.0000
  C   C30       1.0  0.69713  0.27774  0.50359  1.0000
  C   C31       1.0  0.64507  0.24009  0.50578  1.0000
  C   C32       1.0  0.58634  0.26486  0.50419  1.0000
  N   N1        1.0  0.44243  0.57349  0.49874  1.0000
  N   N2        1.0  0.42260  0.44827  0.49637  1.0000
  N   N3        1.0  0.34268  0.52510  0.49726  1.0000
  N   N4        1.0  0.54822  0.42835  0.49401  1.0000
  N   N5        1.0  0.47124  0.34865  0.49963  1.0000
  N   N6        1.0  0.56793  0.55356  0.50059  1.0000
  N   N7        1.0  0.51937  0.65326  0.50586  1.0000
  N   N8        1.0  0.64795  0.47676  0.49503  1.0000
  H   H1        1.0  0.44477  0.76529  0.51708  1.0000
  H   H2        1.0  0.25899  0.63124  0.50125  1.0000
  H   H3        1.0  0.23033  0.45017  0.50197  1.0000
  H   H4        1.0  0.36532  0.26477  0.50522  1.0000
  H   H5        1.0  0.54594  0.23622  0.50611  1.0000
  H   H6        1.0  0.73180  0.37060  0.49826  1.0000
  H   H7        1.0  0.76026  0.55204  0.49203  1.0000
  H   H8        1.0  0.62512  0.73704  0.50934  1.0000
  H   H9        1.0  0.80529  0.65700  0.49899  1.0000
  H   H10       1.0  0.73892  0.74796  0.50746  1.0000
  H   H11       1.0  0.74212  0.25683  0.50464  1.0000
  H   H12       1.0  0.65088  0.19087  0.50877  1.0000
  H   H13       1.0  0.25154  0.25412  0.50874  1.0000
  H   H14       1.0  0.18517  0.34517  0.50717  1.0000
  H   H15       1.0  0.24857  0.74465  0.51578  1.0000
  H   H16       1.0  0.33986  0.81056  0.52397  1.0000
  Cu  Cu1       1.0  0.49510  0.50080  0.49815  1.0000
  O   O1        1.0  0.50046  0.52882  0.91955  1.0000
  O   O2        1.0  0.51740  0.46809  0.68848  1.0000
  O   O3        1.0  0.61445  0.54945  0.74158  1.0000
  O   O4        1.0  0.38091  0.52088  0.74337  1.0000
  C   C33       1.0  0.53285  0.51131  0.84073  1.0000
  C   C34       1.0  0.48685  0.49133  0.76657  1.0000
  C   C35       1.0  0.57594  0.56116  0.81302  1.0000
  C   C36       1.0  0.44096  0.54016  0.74728  1.0000
  C   C37       1.0  0.58601  0.61878  0.84439  1.0000
  C   C38       1.0  0.44336  0.60193  0.73270  1.0000
  C   C39       1.0  0.63315  0.64478  0.78959  1.0000
  C   C40       1.0  0.38190  0.62204  0.71878  1.0000
  C   C41       1.0  0.64893  0.60140  0.72859  1.0000
  C   C42       1.0  0.34606  0.57142  0.72575  1.0000
  H   H17       1.0  0.55918  0.47045  0.85835  1.0000
  H   H18       1.0  0.46169  0.45239  0.79390  1.0000
  H   H19       1.0  0.56281  0.63978  0.90027  1.0000
  H   H20       1.0  0.48422  0.62943  0.73048  1.0000
  H   H21       1.0  0.47150  0.55999  0.90093  1.0000
  H   H22       1.0  0.54771  0.49788  0.67012  1.0000
  H   H23       1.0  0.65282  0.68985  0.79509  1.0000
  H   H24       1.0  0.36679  0.66775  0.70314  1.0000
  H   H25       1.0  0.68123  0.59928  0.67418  1.0000
  H   H26       1.0  0.29770  0.56329  0.71879  1.0000
