data_image0
_chemical_formula_structural       C32N8H16CuO2C5H5
_chemical_formula_sum              "C37 N8 H21 Cu1 O2"
_cell_length_a       22.0194
_cell_length_b       22.0194
_cell_length_c       15
_cell_angle_alpha    90
_cell_angle_beta     90
_cell_angle_gamma    90

_space_group_name_H-M_alt    "P 1"
_space_group_IT_number       1

loop_
  _space_group_symop_operation_xyz
  'x, y, z'

loop_
  _atom_site_type_symbol
  _atom_site_label
  _atom_site_symmetry_multiplicity
  _atom_site_fract_x
  _atom_site_fract_y
  _atom_site_fract_z
  _atom_site_occupancy
  C   C1        1.0  0.36435  0.63469  0.50812  1.0000
  C   C2        1.0  0.41670  0.67237  0.50681  1.0000
  C   C3        1.0  0.46942  0.63169  0.50817  1.0000
  C   C4        1.0  0.38613  0.57183  0.51086  1.0000
  C   C5        1.0  0.36559  0.36140  0.49816  1.0000
  C   C6        1.0  0.32832  0.41373  0.50477  1.0000
  C   C7        1.0  0.36926  0.46622  0.50637  1.0000
  C   C8        1.0  0.42859  0.38304  0.49473  1.0000
  C   C9        1.0  0.63856  0.36193  0.47919  1.0000
  C   C10       1.0  0.58625  0.32433  0.48058  1.0000
  C   C11       1.0  0.53357  0.36532  0.48146  1.0000
  C   C12       1.0  0.61656  0.42490  0.47880  1.0000
  C   C13       1.0  0.63764  0.63487  0.50042  1.0000
  C   C14       1.0  0.67486  0.58258  0.49296  1.0000
  C   C15       1.0  0.63371  0.53027  0.48764  1.0000
  C   C16       1.0  0.57458  0.61335  0.50030  1.0000
  C   C17       1.0  0.34017  0.30307  0.49404  1.0000
  C   C18       1.0  0.27664  0.29827  0.49725  1.0000
  C   C19       1.0  0.23947  0.35052  0.50419  1.0000
  C   C20       1.0  0.26483  0.40893  0.50806  1.0000
  C   C21       1.0  0.30577  0.65980  0.50692  1.0000
  C   C22       1.0  0.30070  0.72328  0.50483  1.0000
  C   C23       1.0  0.35290  0.76085  0.50347  1.0000
  C   C24       1.0  0.41150  0.73586  0.50411  1.0000
  C   C25       1.0  0.66307  0.69309  0.50669  1.0000
  C   C26       1.0  0.72661  0.69789  0.50459  1.0000
  C   C27       1.0  0.76379  0.64571  0.49680  1.0000
  C   C28       1.0  0.73836  0.58736  0.49089  1.0000
  C   C29       1.0  0.69706  0.33682  0.48005  1.0000
  C   C30       1.0  0.70213  0.27328  0.48246  1.0000
  C   C31       1.0  0.64993  0.23578  0.48387  1.0000
  C   C32       1.0  0.59131  0.26087  0.48305  1.0000
  N   N1        1.0  0.44918  0.57202  0.51255  1.0000
  N   N2        1.0  0.42873  0.44586  0.50057  1.0000
  N   N3        1.0  0.34948  0.52352  0.51125  1.0000
  N   N4        1.0  0.55381  0.42468  0.47833  1.0000
  N   N5        1.0  0.47624  0.34584  0.48700  1.0000
  N   N6        1.0  0.57429  0.55069  0.49217  1.0000
  N   N7        1.0  0.52694  0.65084  0.50600  1.0000
  N   N8        1.0  0.65345  0.47306  0.48118  1.0000
  H   H1        1.0  0.45198  0.76443  0.50266  1.0000
  H   H2        1.0  0.26578  0.63052  0.50755  1.0000
  H   H3        1.0  0.23660  0.44953  0.51289  1.0000
  H   H4        1.0  0.36918  0.26309  0.48827  1.0000
  H   H5        1.0  0.55079  0.23231  0.48409  1.0000
  H   H6        1.0  0.73705  0.36609  0.47893  1.0000
  H   H7        1.0  0.76665  0.54687  0.48483  1.0000
  H   H8        1.0  0.63403  0.73303  0.51258  1.0000
  H   H9        1.0  0.81310  0.65111  0.49535  1.0000
  H   H10       1.0  0.74791  0.74259  0.50880  1.0000
  H   H11       1.0  0.74706  0.25227  0.48309  1.0000
  H   H12       1.0  0.65553  0.18650  0.48536  1.0000
  H   H13       1.0  0.25533  0.25353  0.49407  1.0000
  H   H14       1.0  0.19017  0.34514  0.50613  1.0000
  H   H15       1.0  0.25577  0.74431  0.50406  1.0000
  H   H16       1.0  0.34725  0.81012  0.50177  1.0000
  Cu  Cu1       1.0  0.50146  0.49787  0.49410  1.0000
  O   O1        1.0  0.51108  0.38331  0.70452  1.0000
  O   O2        1.0  0.50124  0.54759  0.69608  1.0000
  C   C33       1.0  0.53000  0.44415  0.70385  1.0000
  C   C34       1.0  0.59395  0.44631  0.70906  1.0000
  C   C35       1.0  0.61421  0.38538  0.71181  1.0000
  C   C36       1.0  0.56294  0.34900  0.70866  1.0000
  C   C37       1.0  0.48557  0.48809  0.69188  1.0000
  H   H17       1.0  0.62108  0.48740  0.70698  1.0000
  H   H18       1.0  0.66087  0.36940  0.71341  1.0000
  H   H19       1.0  0.55638  0.30021  0.70716  1.0000
  H   H20       1.0  0.43844  0.47579  0.67891  1.0000
  H   H21       1.0  0.47421  0.57040  0.65623  1.0000
