data_image0
_chemical_formula_structural       C32N8H16CuH
_chemical_formula_sum              "C32 N8 H17 Cu1"
_cell_length_a       22.0194
_cell_length_b       22.0194
_cell_length_c       15
_cell_angle_alpha    90
_cell_angle_beta     90
_cell_angle_gamma    90

_space_group_name_H-M_alt    "P 1"
_space_group_IT_number       1

loop_
  _space_group_symop_operation_xyz
  'x, y, z'

loop_
  _atom_site_type_symbol
  _atom_site_label
  _atom_site_symmetry_multiplicity
  _atom_site_fract_x
  _atom_site_fract_y
  _atom_site_fract_z
  _atom_site_occupancy
  C   C1        1.0  0.36258  0.63647  0.49226  1.0000
  C   C2        1.0  0.41496  0.67400  0.49205  1.0000
  C   C3        1.0  0.46743  0.63300  0.48262  1.0000
  C   C4        1.0  0.38449  0.57358  0.48279  1.0000
  C   C5        1.0  0.36555  0.36338  0.51175  1.0000
  C   C6        1.0  0.32861  0.41557  0.50073  1.0000
  C   C7        1.0  0.36952  0.46792  0.49952  1.0000
  C   C8        1.0  0.42800  0.38501  0.52044  1.0000
  C   C9        1.0  0.63781  0.36331  0.51757  1.0000
  C   C10       1.0  0.58514  0.32557  0.51769  1.0000
  C   C11       1.0  0.53258  0.36325  0.53633  1.0000
  C   C12       1.0  0.61907  0.42521  0.53626  1.0000
  C   C13       1.0  0.63501  0.63518  0.50054  1.0000
  C   C14       1.0  0.67261  0.58347  0.51164  1.0000
  C   C15       1.0  0.63209  0.53124  0.52047  1.0000
  C   C16       1.0  0.57230  0.61322  0.49944  1.0000
  C   C17       1.0  0.33998  0.30501  0.51423  1.0000
  C   C18       1.0  0.27682  0.30015  0.50475  1.0000
  C   C19       1.0  0.23994  0.35230  0.49336  1.0000
  C   C20       1.0  0.26542  0.41065  0.49099  1.0000
  C   C21       1.0  0.30447  0.66116  0.50337  1.0000
  C   C22       1.0  0.29970  0.72451  0.51293  1.0000
  C   C23       1.0  0.35186  0.76189  0.51270  1.0000
  C   C24       1.0  0.41028  0.73699  0.50286  1.0000
  C   C25       1.0  0.65996  0.69343  0.49059  1.0000
  C   C26       1.0  0.72342  0.69889  0.49285  1.0000
  C   C27       1.0  0.76099  0.64724  0.50429  1.0000
  C   C28       1.0  0.73611  0.58898  0.51397  1.0000
  C   C29       1.0  0.69533  0.33913  0.49759  1.0000
  C   C30       1.0  0.69961  0.27667  0.48100  1.0000
  C   C31       1.0  0.64728  0.23917  0.48113  1.0000
  C   C32       1.0  0.58954  0.26329  0.49786  1.0000
  N   N1        1.0  0.44680  0.57421  0.47192  1.0000
  N   N2        1.0  0.42894  0.44805  0.51286  1.0000
  N   N3        1.0  0.34900  0.52479  0.48875  1.0000
  N   N4        1.0  0.55470  0.42372  0.55033  1.0000
  N   N5        1.0  0.47519  0.34691  0.52964  1.0000
  N   N6        1.0  0.57207  0.55058  0.51290  1.0000
  N   N7        1.0  0.52505  0.65091  0.48855  1.0000
  N   N8        1.0  0.65300  0.47430  0.52958  1.0000
  H   H1        1.0  0.45081  0.76550  0.50354  1.0000
  H   H2        1.0  0.26444  0.63196  0.50430  1.0000
  H   H3        1.0  0.23753  0.45117  0.48214  1.0000
  H   H4        1.0  0.36870  0.26504  0.52260  1.0000
  H   H5        1.0  0.54888  0.23499  0.49658  1.0000
  H   H6        1.0  0.73519  0.36854  0.49629  1.0000
  H   H7        1.0  0.76479  0.54896  0.52218  1.0000
  H   H8        1.0  0.63055  0.73284  0.48166  1.0000
  H   H9        1.0  0.81025  0.65303  0.50508  1.0000
  H   H10       1.0  0.74439  0.74358  0.48568  1.0000
  H   H11       1.0  0.74391  0.25643  0.46733  1.0000
  H   H12       1.0  0.65221  0.19071  0.46751  1.0000
  H   H13       1.0  0.25552  0.25536  0.50563  1.0000
  H   H14       1.0  0.19088  0.34677  0.48632  1.0000
  H   H15       1.0  0.25499  0.74530  0.52091  1.0000
  H   H16       1.0  0.34654  0.81091  0.52048  1.0000
  Cu  Cu1       1.0  0.49780  0.50311  0.49744  1.0000
  H   H17       1.0  0.53904  0.44561  0.60559  1.0000
