data_image0
_chemical_formula_structural       C224N8H16Co
_chemical_formula_sum              "C224 N8 H16 Co1"
_cell_length_a       25.7292
_cell_length_b       19.8864
_cell_length_c       24
_cell_angle_alpha    90
_cell_angle_beta     90
_cell_angle_gamma    90

_space_group_name_H-M_alt    "P 1"
_space_group_IT_number       1

loop_
  _space_group_symop_operation_xyz
  'x, y, z'

loop_
  _atom_site_type_symbol
  _atom_site_label
  _atom_site_symmetry_multiplicity
  _atom_site_fract_x
  _atom_site_fract_y
  _atom_site_fract_z
  _atom_site_occupancy
  C   C1        1.0  0.02780  0.03078  0.48308  1.0000
  C   C2        1.0  0.13897  0.03080  0.48426  1.0000
  C   C3        1.0  0.11115  0.09330  0.48471  1.0000
  C   C4        1.0  0.05560  0.09331  0.48402  1.0000
  C   C5        1.0  0.02777  0.15580  0.48472  1.0000
  C   C6        1.0  0.13891  0.15576  0.48697  1.0000
  C   C7        1.0  0.11108  0.21823  0.48769  1.0000
  C   C8        1.0  0.05555  0.21828  0.48608  1.0000
  C   C9        1.0  0.02774  0.28075  0.48675  1.0000
  C   C10       1.0  0.13880  0.28073  0.49022  1.0000
  C   C11       1.0  0.11101  0.34325  0.49028  1.0000
  C   C12       1.0  0.05550  0.34324  0.48844  1.0000
  C   C13       1.0  0.02775  0.40575  0.48902  1.0000
  C   C14       1.0  0.13879  0.40576  0.49223  1.0000
  C   C15       1.0  0.11105  0.46831  0.49149  1.0000
  C   C16       1.0  0.05551  0.46829  0.48990  1.0000
  C   C17       1.0  0.02776  0.53083  0.48885  1.0000
  C   C18       1.0  0.13885  0.53085  0.49216  1.0000
  C   C19       1.0  0.11107  0.59335  0.48987  1.0000
  C   C20       1.0  0.05553  0.59335  0.48780  1.0000
  C   C21       1.0  0.02776  0.65577  0.48505  1.0000
  C   C22       1.0  0.13883  0.65587  0.48957  1.0000
  C   C23       1.0  0.11105  0.71832  0.48641  1.0000
  C   C24       1.0  0.05554  0.71824  0.48396  1.0000
  C   C25       1.0  0.02777  0.78074  0.48213  1.0000
  C   C26       1.0  0.13886  0.78083  0.48637  1.0000
  C   C27       1.0  0.11113  0.84329  0.48388  1.0000
  C   C28       1.0  0.05558  0.84323  0.48209  1.0000
  C   C29       1.0  0.02778  0.90575  0.48162  1.0000
  C   C30       1.0  0.13895  0.90579  0.48409  1.0000
  C   C31       1.0  0.11118  0.96829  0.48316  1.0000
  C   C32       1.0  0.05560  0.96825  0.48237  1.0000
  C   C33       1.0  0.19451  0.03081  0.48590  1.0000
  C   C34       1.0  0.30556  0.03083  0.49146  1.0000
  C   C35       1.0  0.27776  0.09331  0.49084  1.0000
  C   C36       1.0  0.22227  0.09330  0.48811  1.0000
  C   C37       1.0  0.19445  0.15577  0.48885  1.0000
  C   C38       1.0  0.30549  0.15578  0.49392  1.0000
  C   C39       1.0  0.27769  0.21828  0.49438  1.0000
  C   C40       1.0  0.22216  0.21826  0.49194  1.0000
  C   C41       1.0  0.19434  0.28075  0.49247  1.0000
  C   C42       1.0  0.30544  0.28076  0.49716  1.0000
  C   C43       1.0  0.27763  0.34327  0.49723  1.0000
  C   C44       1.0  0.22209  0.34326  0.49490  1.0000
  C   C45       1.0  0.19432  0.40578  0.49452  1.0000
  C   C46       1.0  0.30542  0.40577  0.49918  1.0000
  C   C47       1.0  0.27764  0.46831  0.49840  1.0000
  C   C48       1.0  0.22211  0.46830  0.49605  1.0000
  C   C49       1.0  0.19437  0.53084  0.49457  1.0000
  C   C50       1.0  0.30543  0.53083  0.49947  1.0000
  C   C51       1.0  0.27767  0.59337  0.49769  1.0000
  C   C52       1.0  0.22214  0.59339  0.49510  1.0000
  C   C53       1.0  0.19435  0.65587  0.49248  1.0000
  C   C54       1.0  0.30547  0.65588  0.49801  1.0000
  C   C55       1.0  0.27768  0.71836  0.49539  1.0000
  C   C56       1.0  0.22215  0.71839  0.49246  1.0000
  C   C57       1.0  0.19439  0.78085  0.48934  1.0000
  C   C58       1.0  0.30546  0.78090  0.49530  1.0000
  C   C59       1.0  0.27768  0.84338  0.49230  1.0000
  C   C60       1.0  0.22218  0.84337  0.48922  1.0000
  C   C61       1.0  0.19447  0.90585  0.48631  1.0000
  C   C62       1.0  0.30551  0.90588  0.49233  1.0000
  C   C63       1.0  0.27778  0.96837  0.48977  1.0000
  C   C64       1.0  0.22229  0.96834  0.48683  1.0000
  C   C65       1.0  0.36105  0.03083  0.49458  1.0000
  C   C66       1.0  0.47221  0.03084  0.49794  1.0000
  C   C67       1.0  0.44439  0.09332  0.49806  1.0000
  C   C68       1.0  0.38883  0.09331  0.49648  1.0000
  C   C69       1.0  0.36101  0.15580  0.49649  1.0000
  C   C70       1.0  0.47220  0.15580  0.49941  1.0000
  C   C71       1.0  0.44438  0.21828  0.50026  1.0000
  C   C72       1.0  0.38880  0.21827  0.49889  1.0000
  C   C73       1.0  0.36100  0.28077  0.49929  1.0000
  C   C74       1.0  0.47219  0.28077  0.50182  1.0000
  C   C75       1.0  0.44435  0.34327  0.50250  1.0000
  C   C76       1.0  0.38878  0.34327  0.50128  1.0000
  C   C77       1.0  0.36098  0.40577  0.50124  1.0000
  C   C78       1.0  0.47218  0.40577  0.50351  1.0000
  C   C79       1.0  0.44437  0.46829  0.50357  1.0000
  C   C80       1.0  0.38879  0.46828  0.50245  1.0000
  C   C81       1.0  0.36098  0.53082  0.50157  1.0000
  C   C82       1.0  0.47219  0.53082  0.50388  1.0000
  C   C83       1.0  0.44437  0.59334  0.50318  1.0000
  C   C84       1.0  0.38879  0.59335  0.50199  1.0000
  C   C85       1.0  0.36101  0.65587  0.50026  1.0000
  C   C86       1.0  0.47219  0.65585  0.50273  1.0000
  C   C87       1.0  0.44438  0.71836  0.50133  1.0000
  C   C88       1.0  0.38880  0.71838  0.50003  1.0000
  C   C89       1.0  0.36101  0.78087  0.49773  1.0000
  C   C90       1.0  0.47219  0.78085  0.50046  1.0000
  C   C91       1.0  0.44439  0.84335  0.49890  1.0000
  C   C92       1.0  0.38884  0.84336  0.49743  1.0000
  C   C93       1.0  0.36104  0.90584  0.49522  1.0000
  C   C94       1.0  0.47219  0.90584  0.49835  1.0000
  C   C95       1.0  0.44439  0.96834  0.49747  1.0000
  C   C96       1.0  0.38884  0.96834  0.49582  1.0000
  C   C97       1.0  0.52776  0.03083  0.49796  1.0000
  C   C98       1.0  0.63892  0.03082  0.49469  1.0000
  C   C99       1.0  0.61114  0.09330  0.49655  1.0000
  C   C100      1.0  0.55557  0.09331  0.49808  1.0000
  C   C101      1.0  0.52777  0.15580  0.49942  1.0000
  C   C102      1.0  0.63896  0.15579  0.49655  1.0000
  C   C103      1.0  0.61117  0.21827  0.49894  1.0000
  C   C104      1.0  0.55559  0.21828  0.50027  1.0000
  C   C105      1.0  0.52778  0.28077  0.50183  1.0000
  C   C106      1.0  0.63897  0.28076  0.49935  1.0000
  C   C107      1.0  0.61119  0.34326  0.50133  1.0000
  C   C108      1.0  0.55562  0.34327  0.50252  1.0000
  C   C109      1.0  0.52778  0.40577  0.50353  1.0000
  C   C110      1.0  0.63899  0.40577  0.50130  1.0000
  C   C111      1.0  0.61118  0.46828  0.50250  1.0000
  C   C112      1.0  0.55560  0.46829  0.50361  1.0000
  C   C113      1.0  0.52777  0.53082  0.50390  1.0000
  C   C114      1.0  0.63898  0.53082  0.50165  1.0000
  C   C115      1.0  0.61117  0.59334  0.50209  1.0000
  C   C116      1.0  0.55558  0.59334  0.50323  1.0000
  C   C117      1.0  0.52776  0.65585  0.50276  1.0000
  C   C118      1.0  0.63895  0.65586  0.50038  1.0000
  C   C119      1.0  0.61116  0.71837  0.50013  1.0000
  C   C120      1.0  0.55558  0.71836  0.50140  1.0000
  C   C121      1.0  0.52777  0.78085  0.50048  1.0000
  C   C122      1.0  0.63895  0.78086  0.49783  1.0000
  C   C123      1.0  0.61112  0.84335  0.49752  1.0000
  C   C124      1.0  0.55557  0.84334  0.49895  1.0000
  C   C125      1.0  0.52777  0.90583  0.49837  1.0000
  C   C126      1.0  0.63893  0.90583  0.49536  1.0000
  C   C127      1.0  0.61112  0.96832  0.49593  1.0000
  C   C128      1.0  0.55557  0.96833  0.49752  1.0000
  C   C129      1.0  0.69441  0.03082  0.49158  1.0000
  C   C130      1.0  0.80546  0.03081  0.48605  1.0000
  C   C131      1.0  0.77769  0.09330  0.48824  1.0000
  C   C132      1.0  0.72221  0.09330  0.49096  1.0000
  C   C133      1.0  0.69448  0.15577  0.49401  1.0000
  C   C134      1.0  0.80552  0.15576  0.48898  1.0000
  C   C135      1.0  0.77781  0.21825  0.49204  1.0000
  C   C136      1.0  0.72228  0.21827  0.49448  1.0000
  C   C137      1.0  0.69452  0.28076  0.49724  1.0000
  C   C138      1.0  0.80563  0.28075  0.49256  1.0000
  C   C139      1.0  0.77787  0.34326  0.49501  1.0000
  C   C140      1.0  0.72234  0.34326  0.49733  1.0000
  C   C141      1.0  0.69455  0.40577  0.49928  1.0000
  C   C142      1.0  0.80564  0.40578  0.49464  1.0000
  C   C143      1.0  0.77786  0.46830  0.49614  1.0000
  C   C144      1.0  0.72233  0.46830  0.49848  1.0000
  C   C145      1.0  0.69453  0.53083  0.49954  1.0000
  C   C146      1.0  0.80561  0.53084  0.49465  1.0000
  C   C147      1.0  0.77783  0.59338  0.49517  1.0000
  C   C148      1.0  0.72230  0.59336  0.49776  1.0000
  C   C149      1.0  0.69449  0.65587  0.49810  1.0000
  C   C150      1.0  0.80562  0.65586  0.49257  1.0000
  C   C151      1.0  0.77781  0.71838  0.49257  1.0000
  C   C152      1.0  0.72229  0.71836  0.49550  1.0000
  C   C153      1.0  0.69451  0.78089  0.49543  1.0000
  C   C154      1.0  0.80558  0.78084  0.48948  1.0000
  C   C155      1.0  0.77778  0.84336  0.48938  1.0000
  C   C156      1.0  0.72228  0.84336  0.49245  1.0000
  C   C157      1.0  0.69446  0.90587  0.49248  1.0000
  C   C158      1.0  0.80549  0.90584  0.48649  1.0000
  C   C159      1.0  0.77768  0.96833  0.48699  1.0000
  C   C160      1.0  0.72219  0.96835  0.48991  1.0000
  C   C161      1.0  0.86100  0.03078  0.48443  1.0000
  C   C162      1.0  0.97217  0.03078  0.48312  1.0000
  C   C163      1.0  0.94437  0.09330  0.48410  1.0000
  C   C164      1.0  0.88882  0.09328  0.48487  1.0000
  C   C165      1.0  0.86107  0.15575  0.48710  1.0000
  C   C166      1.0  0.97220  0.15579  0.48475  1.0000
  C   C167      1.0  0.94442  0.21828  0.48613  1.0000
  C   C168      1.0  0.88889  0.21822  0.48778  1.0000
  C   C169      1.0  0.86117  0.28073  0.49031  1.0000
  C   C170      1.0  0.97222  0.28075  0.48677  1.0000
  C   C171      1.0  0.94447  0.34325  0.48849  1.0000
  C   C172      1.0  0.88896  0.34325  0.49035  1.0000
  C   C173      1.0  0.86117  0.40576  0.49232  1.0000
  C   C174      1.0  0.97221  0.40574  0.48903  1.0000
  C   C175      1.0  0.94445  0.46828  0.48993  1.0000
  C   C176      1.0  0.88892  0.46831  0.49155  1.0000
  C   C177      1.0  0.86113  0.53085  0.49223  1.0000
  C   C178      1.0  0.97221  0.53083  0.48887  1.0000
  C   C179      1.0  0.94445  0.59335  0.48783  1.0000
  C   C180      1.0  0.88891  0.59335  0.48992  1.0000
  C   C181      1.0  0.86114  0.65587  0.48965  1.0000
  C   C182      1.0  0.97222  0.65577  0.48507  1.0000
  C   C183      1.0  0.94443  0.71824  0.48403  1.0000
  C   C184      1.0  0.88892  0.71831  0.48651  1.0000
  C   C185      1.0  0.86110  0.78082  0.48651  1.0000
  C   C186      1.0  0.97220  0.78074  0.48217  1.0000
  C   C187      1.0  0.94438  0.84323  0.48217  1.0000
  C   C188      1.0  0.88883  0.84329  0.48401  1.0000
  C   C189      1.0  0.86101  0.90577  0.48427  1.0000
  C   C190      1.0  0.97219  0.90575  0.48166  1.0000
  C   C191      1.0  0.94437  0.96824  0.48246  1.0000
  C   C192      1.0  0.88878  0.96828  0.48331  1.0000
  C   C193      1.0  0.97285  0.21085  0.62720  1.0000
  C   C194      1.0  0.02778  0.21077  0.62716  1.0000
  C   C195      1.0  0.04386  0.14037  0.62606  1.0000
  C   C196      1.0  0.95663  0.14051  0.62612  1.0000
  C   C197      1.0  0.83831  0.96632  0.62675  1.0000
  C   C198      1.0  0.83838  0.03738  0.62695  1.0000
  C   C199      1.0  0.89282  0.05819  0.62604  1.0000
  C   C200      1.0  0.89271  0.94539  0.62584  1.0000
  C   C201      1.0  0.02723  0.79223  0.62729  1.0000
  C   C202      1.0  0.97230  0.79232  0.62742  1.0000
  C   C203      1.0  0.95627  0.86277  0.62630  1.0000
  C   C204      1.0  0.04343  0.86264  0.62614  1.0000
  C   C205      1.0  0.16188  0.03675  0.62681  1.0000
  C   C206      1.0  0.16169  0.96569  0.62657  1.0000
  C   C207      1.0  0.10724  0.94503  0.62566  1.0000
  C   C208      1.0  0.10749  0.05782  0.62595  1.0000
  C   C209      1.0  0.79172  0.92971  0.62736  1.0000
  C   C210      1.0  0.74516  0.96630  0.62806  1.0000
  C   C211      1.0  0.74521  0.03748  0.62820  1.0000
  C   C212      1.0  0.79182  0.07404  0.62769  1.0000
  C   C213      1.0  0.94461  0.27114  0.62785  1.0000
  C   C214      1.0  0.97293  0.33136  0.62837  1.0000
  C   C215      1.0  0.02795  0.33129  0.62832  1.0000
  C   C216      1.0  0.05615  0.27097  0.62776  1.0000
  C   C217      1.0  0.20859  0.07310  0.62750  1.0000
  C   C218      1.0  0.25507  0.03630  0.62800  1.0000
  C   C219      1.0  0.25487  0.96512  0.62785  1.0000
  C   C220      1.0  0.20816  0.92883  0.62712  1.0000
  C   C221      1.0  0.05545  0.73188  0.62771  1.0000
  C   C222      1.0  0.02715  0.67160  0.62819  1.0000
  C   C223      1.0  0.97213  0.67170  0.62828  1.0000
  C   C224      1.0  0.94395  0.73206  0.62790  1.0000
  N   N1        1.0  0.00020  0.09883  0.62540  1.0000
  N   N2        1.0  0.92493  0.00175  0.62534  1.0000
  N   N3        1.0  0.90699  0.12238  0.62627  1.0000
  N   N4        1.0  0.99989  0.90434  0.62556  1.0000
  N   N5        1.0  0.90667  0.88112  0.62607  1.0000
  N   N6        1.0  0.07519  0.00154  0.62526  1.0000
  N   N7        1.0  0.09349  0.12209  0.62617  1.0000
  N   N8        1.0  0.09306  0.88084  0.62581  1.0000
  H   H1        1.0  0.09853  0.27051  0.62709  1.0000
  H   H2        1.0  0.90223  0.27084  0.62726  1.0000
  H   H3        1.0  0.79212  0.12887  0.62722  1.0000
  H   H4        1.0  0.79199  0.87489  0.62664  1.0000
  H   H5        1.0  0.90157  0.73252  0.62731  1.0000
  H   H6        1.0  0.09783  0.73219  0.62700  1.0000
  H   H7        1.0  0.20769  0.87401  0.62639  1.0000
  H   H8        1.0  0.20848  0.12793  0.62702  1.0000
  H   H9        1.0  0.29183  0.93814  0.62747  1.0000
  H   H10       1.0  0.29220  0.06288  0.62776  1.0000
  H   H11       1.0  0.04783  0.62365  0.62771  1.0000
  H   H12       1.0  0.95137  0.62382  0.62787  1.0000
  H   H13       1.0  0.70808  0.93962  0.62767  1.0000
  H   H14       1.0  0.70819  0.06430  0.62797  1.0000
  H   H15       1.0  0.95227  0.37933  0.62809  1.0000
  H   H16       1.0  0.04869  0.37918  0.62801  1.0000
  Co  Co1       1.0  0.00006  0.00165  0.62435  1.0000
