data_image0
_chemical_formula_structural       C224N8H16CoO2C5H4
_chemical_formula_sum              "C229 N8 H20 Co1 O2"
_cell_length_a       25.7292
_cell_length_b       19.8864
_cell_length_c       24
_cell_angle_alpha    90
_cell_angle_beta     90
_cell_angle_gamma    90

_space_group_name_H-M_alt    "P 1"
_space_group_IT_number       1

loop_
  _space_group_symop_operation_xyz
  'x, y, z'

loop_
  _atom_site_type_symbol
  _atom_site_label
  _atom_site_symmetry_multiplicity
  _atom_site_fract_x
  _atom_site_fract_y
  _atom_site_fract_z
  _atom_site_occupancy
  C   C1        1.0  0.02781  0.03091  0.48327  1.0000
  C   C2        1.0  0.13897  0.03095  0.48424  1.0000
  C   C3        1.0  0.11114  0.09343  0.48478  1.0000
  C   C4        1.0  0.05560  0.09343  0.48416  1.0000
  C   C5        1.0  0.02777  0.15593  0.48480  1.0000
  C   C6        1.0  0.13890  0.15591  0.48682  1.0000
  C   C7        1.0  0.11108  0.21838  0.48725  1.0000
  C   C8        1.0  0.05554  0.21842  0.48585  1.0000
  C   C9        1.0  0.02776  0.28090  0.48631  1.0000
  C   C10       1.0  0.13883  0.28088  0.48937  1.0000
  C   C11       1.0  0.11105  0.34340  0.48918  1.0000
  C   C12       1.0  0.05553  0.34340  0.48753  1.0000
  C   C13       1.0  0.02777  0.40590  0.48774  1.0000
  C   C14       1.0  0.13883  0.40592  0.49072  1.0000
  C   C15       1.0  0.11107  0.46845  0.48975  1.0000
  C   C16       1.0  0.05553  0.46844  0.48829  1.0000
  C   C17       1.0  0.02776  0.53098  0.48731  1.0000
  C   C18       1.0  0.13883  0.53100  0.49026  1.0000
  C   C19       1.0  0.11105  0.59350  0.48812  1.0000
  C   C20       1.0  0.05551  0.59352  0.48634  1.0000
  C   C21       1.0  0.02776  0.65597  0.48405  1.0000
  C   C22       1.0  0.13884  0.65602  0.48792  1.0000
  C   C23       1.0  0.11108  0.71849  0.48509  1.0000
  C   C24       1.0  0.05555  0.71844  0.48298  1.0000
  C   C25       1.0  0.02778  0.78092  0.48157  1.0000
  C   C26       1.0  0.13889  0.78100  0.48513  1.0000
  C   C27       1.0  0.11116  0.84347  0.48296  1.0000
  C   C28       1.0  0.05562  0.84340  0.48153  1.0000
  C   C29       1.0  0.02779  0.90591  0.48153  1.0000
  C   C30       1.0  0.13897  0.90596  0.48340  1.0000
  C   C31       1.0  0.11119  0.96846  0.48289  1.0000
  C   C32       1.0  0.05561  0.96841  0.48233  1.0000
  C   C33       1.0  0.19450  0.03098  0.48586  1.0000
  C   C34       1.0  0.30555  0.03100  0.49139  1.0000
  C   C35       1.0  0.27775  0.09347  0.49083  1.0000
  C   C36       1.0  0.22226  0.09345  0.48815  1.0000
  C   C37       1.0  0.19444  0.15592  0.48869  1.0000
  C   C38       1.0  0.30549  0.15594  0.49366  1.0000
  C   C39       1.0  0.27770  0.21843  0.49381  1.0000
  C   C40       1.0  0.22217  0.21840  0.49144  1.0000
  C   C41       1.0  0.19436  0.28090  0.49158  1.0000
  C   C42       1.0  0.30546  0.28093  0.49614  1.0000
  C   C43       1.0  0.27765  0.34344  0.49591  1.0000
  C   C44       1.0  0.22213  0.34341  0.49362  1.0000
  C   C45       1.0  0.19436  0.40594  0.49293  1.0000
  C   C46       1.0  0.30543  0.40597  0.49760  1.0000
  C   C47       1.0  0.27764  0.46850  0.49671  1.0000
  C   C48       1.0  0.22211  0.46849  0.49425  1.0000
  C   C49       1.0  0.19435  0.53101  0.49264  1.0000
  C   C50       1.0  0.30544  0.53102  0.49766  1.0000
  C   C51       1.0  0.27767  0.59353  0.49582  1.0000
  C   C52       1.0  0.22214  0.59353  0.49316  1.0000
  C   C53       1.0  0.19436  0.65602  0.49067  1.0000
  C   C54       1.0  0.30547  0.65603  0.49615  1.0000
  C   C55       1.0  0.27769  0.71851  0.49373  1.0000
  C   C56       1.0  0.22216  0.71853  0.49083  1.0000
  C   C57       1.0  0.19442  0.78102  0.48797  1.0000
  C   C58       1.0  0.30546  0.78105  0.49400  1.0000
  C   C59       1.0  0.27769  0.84354  0.49131  1.0000
  C   C60       1.0  0.22220  0.84353  0.48814  1.0000
  C   C61       1.0  0.19449  0.90602  0.48560  1.0000
  C   C62       1.0  0.30550  0.90605  0.49177  1.0000
  C   C63       1.0  0.27777  0.96854  0.48949  1.0000
  C   C64       1.0  0.22229  0.96851  0.48650  1.0000
  C   C65       1.0  0.36104  0.03100  0.49447  1.0000
  C   C66       1.0  0.47221  0.03099  0.49795  1.0000
  C   C67       1.0  0.44440  0.09348  0.49784  1.0000
  C   C68       1.0  0.38884  0.09348  0.49627  1.0000
  C   C69       1.0  0.36102  0.15598  0.49608  1.0000
  C   C70       1.0  0.47222  0.15597  0.49888  1.0000
  C   C71       1.0  0.44440  0.21845  0.49927  1.0000
  C   C72       1.0  0.38882  0.21846  0.49802  1.0000
  C   C73       1.0  0.36101  0.28096  0.49812  1.0000
  C   C74       1.0  0.47220  0.28094  0.50040  1.0000
  C   C75       1.0  0.44437  0.34344  0.50084  1.0000
  C   C76       1.0  0.38880  0.34347  0.49974  1.0000
  C   C77       1.0  0.36099  0.40598  0.49953  1.0000
  C   C78       1.0  0.47219  0.40595  0.50164  1.0000
  C   C79       1.0  0.44437  0.46847  0.50159  1.0000
  C   C80       1.0  0.38879  0.46850  0.50054  1.0000
  C   C81       1.0  0.36100  0.53101  0.49964  1.0000
  C   C82       1.0  0.47219  0.53098  0.50176  1.0000
  C   C83       1.0  0.44438  0.59349  0.50112  1.0000
  C   C84       1.0  0.38881  0.59352  0.49998  1.0000
  C   C85       1.0  0.36100  0.65602  0.49838  1.0000
  C   C86       1.0  0.47218  0.65601  0.50084  1.0000
  C   C87       1.0  0.44437  0.71851  0.49979  1.0000
  C   C88       1.0  0.38880  0.71853  0.49843  1.0000
  C   C89       1.0  0.36101  0.78103  0.49652  1.0000
  C   C90       1.0  0.47217  0.78101  0.49946  1.0000
  C   C91       1.0  0.44436  0.84351  0.49833  1.0000
  C   C92       1.0  0.38881  0.84353  0.49672  1.0000
  C   C93       1.0  0.36101  0.90602  0.49478  1.0000
  C   C94       1.0  0.47218  0.90599  0.49820  1.0000
  C   C95       1.0  0.44438  0.96850  0.49742  1.0000
  C   C96       1.0  0.38883  0.96851  0.49563  1.0000
  C   C97       1.0  0.52778  0.03098  0.49816  1.0000
  C   C98       1.0  0.63897  0.03095  0.49549  1.0000
  C   C99       1.0  0.61118  0.09345  0.49683  1.0000
  C   C100      1.0  0.55561  0.09347  0.49815  1.0000
  C   C101      1.0  0.52780  0.15597  0.49897  1.0000
  C   C102      1.0  0.63899  0.15595  0.49651  1.0000
  C   C103      1.0  0.61119  0.21844  0.49816  1.0000
  C   C104      1.0  0.55561  0.21845  0.49934  1.0000
  C   C105      1.0  0.52779  0.28094  0.50041  1.0000
  C   C106      1.0  0.63899  0.28096  0.49819  1.0000
  C   C107      1.0  0.61118  0.34345  0.49970  1.0000
  C   C108      1.0  0.55560  0.34344  0.50080  1.0000
  C   C109      1.0  0.52778  0.40594  0.50161  1.0000
  C   C110      1.0  0.63898  0.40597  0.49951  1.0000
  C   C111      1.0  0.61117  0.46847  0.50052  1.0000
  C   C112      1.0  0.55559  0.46846  0.50157  1.0000
  C   C113      1.0  0.52776  0.53097  0.50176  1.0000
  C   C114      1.0  0.63895  0.53099  0.49981  1.0000
  C   C115      1.0  0.61113  0.59350  0.50026  1.0000
  C   C116      1.0  0.55557  0.59348  0.50123  1.0000
  C   C117      1.0  0.52776  0.65600  0.50095  1.0000
  C   C118      1.0  0.63894  0.65600  0.49900  1.0000
  C   C119      1.0  0.61114  0.71850  0.49908  1.0000
  C   C120      1.0  0.55556  0.71850  0.50010  1.0000
  C   C121      1.0  0.52775  0.78100  0.49965  1.0000
  C   C122      1.0  0.63894  0.78100  0.49751  1.0000
  C   C123      1.0  0.61113  0.84349  0.49760  1.0000
  C   C124      1.0  0.55557  0.84349  0.49874  1.0000
  C   C125      1.0  0.52776  0.90598  0.49844  1.0000
  C   C126      1.0  0.63896  0.90597  0.49603  1.0000
  C   C127      1.0  0.61115  0.96846  0.49662  1.0000
  C   C128      1.0  0.55559  0.96847  0.49789  1.0000
  C   C129      1.0  0.69448  0.03094  0.49277  1.0000
  C   C130      1.0  0.80551  0.03093  0.48753  1.0000
  C   C131      1.0  0.77776  0.09342  0.48942  1.0000
  C   C132      1.0  0.72227  0.09343  0.49196  1.0000
  C   C133      1.0  0.69453  0.15592  0.49431  1.0000
  C   C134      1.0  0.80558  0.15589  0.48959  1.0000
  C   C135      1.0  0.77785  0.21840  0.49204  1.0000
  C   C136      1.0  0.72231  0.21843  0.49430  1.0000
  C   C137      1.0  0.69454  0.28094  0.49638  1.0000
  C   C138      1.0  0.80565  0.28092  0.49208  1.0000
  C   C139      1.0  0.77788  0.34344  0.49403  1.0000
  C   C140      1.0  0.72235  0.34345  0.49616  1.0000
  C   C141      1.0  0.69455  0.40596  0.49775  1.0000
  C   C142      1.0  0.80564  0.40597  0.49350  1.0000
  C   C143      1.0  0.77786  0.46851  0.49486  1.0000
  C   C144      1.0  0.72233  0.46850  0.49705  1.0000
  C   C145      1.0  0.69451  0.53100  0.49807  1.0000
  C   C146      1.0  0.80563  0.53103  0.49349  1.0000
  C   C147      1.0  0.77783  0.59354  0.49417  1.0000
  C   C148      1.0  0.72229  0.59352  0.49663  1.0000
  C   C149      1.0  0.69448  0.65601  0.49708  1.0000
  C   C150      1.0  0.80564  0.65602  0.49193  1.0000
  C   C151      1.0  0.77783  0.71851  0.49232  1.0000
  C   C152      1.0  0.72229  0.71849  0.49504  1.0000
  C   C153      1.0  0.69450  0.78101  0.49536  1.0000
  C   C154      1.0  0.80558  0.78100  0.48979  1.0000
  C   C155      1.0  0.77780  0.84350  0.49015  1.0000
  C   C156      1.0  0.72229  0.84349  0.49306  1.0000
  C   C157      1.0  0.69450  0.90599  0.49347  1.0000
  C   C158      1.0  0.80553  0.90598  0.48777  1.0000
  C   C159      1.0  0.77775  0.96847  0.48855  1.0000
  C   C160      1.0  0.72226  0.96847  0.49133  1.0000
  C   C161      1.0  0.86103  0.03093  0.48567  1.0000
  C   C162      1.0  0.97220  0.03091  0.48359  1.0000
  C   C163      1.0  0.94440  0.09342  0.48464  1.0000
  C   C164      1.0  0.88886  0.09343  0.48571  1.0000
  C   C165      1.0  0.86111  0.15591  0.48764  1.0000
  C   C166      1.0  0.97222  0.15592  0.48499  1.0000
  C   C167      1.0  0.94444  0.21842  0.48618  1.0000
  C   C168      1.0  0.88892  0.21838  0.48784  1.0000
  C   C169      1.0  0.86118  0.28090  0.48992  1.0000
  C   C170      1.0  0.97223  0.28090  0.48645  1.0000
  C   C171      1.0  0.94446  0.34340  0.48779  1.0000
  C   C172      1.0  0.88895  0.34342  0.48965  1.0000
  C   C173      1.0  0.86117  0.40595  0.49129  1.0000
  C   C174      1.0  0.97222  0.40590  0.48789  1.0000
  C   C175      1.0  0.94446  0.46846  0.48865  1.0000
  C   C176      1.0  0.88892  0.46848  0.49039  1.0000
  C   C177      1.0  0.86114  0.53103  0.49107  1.0000
  C   C178      1.0  0.97223  0.53099  0.48753  1.0000
  C   C179      1.0  0.94447  0.59353  0.48686  1.0000
  C   C180      1.0  0.88894  0.59352  0.48899  1.0000
  C   C181      1.0  0.86116  0.65603  0.48909  1.0000
  C   C182      1.0  0.97223  0.65598  0.48442  1.0000
  C   C183      1.0  0.94443  0.71844  0.48380  1.0000
  C   C184      1.0  0.88893  0.71849  0.48638  1.0000
  C   C185      1.0  0.86111  0.78099  0.48680  1.0000
  C   C186      1.0  0.97221  0.78092  0.48205  1.0000
  C   C187      1.0  0.94440  0.84340  0.48249  1.0000
  C   C188      1.0  0.88886  0.84344  0.48463  1.0000
  C   C189      1.0  0.86105  0.90593  0.48537  1.0000
  C   C190      1.0  0.97221  0.90591  0.48201  1.0000
  C   C191      1.0  0.94439  0.96839  0.48314  1.0000
  C   C192      1.0  0.88882  0.96843  0.48443  1.0000
  C   C193      1.0  0.97358  0.21014  0.62817  1.0000
  C   C194      1.0  0.02848  0.21010  0.62836  1.0000
  C   C195      1.0  0.04455  0.13956  0.62761  1.0000
  C   C196      1.0  0.95745  0.13963  0.62738  1.0000
  C   C197      1.0  0.83919  0.96547  0.63004  1.0000
  C   C198      1.0  0.83919  0.03650  0.62955  1.0000
  C   C199      1.0  0.89369  0.05727  0.62791  1.0000
  C   C200      1.0  0.89369  0.94464  0.62875  1.0000
  C   C201      1.0  0.02833  0.79143  0.62635  1.0000
  C   C202      1.0  0.97346  0.79154  0.62894  1.0000
  C   C203      1.0  0.95740  0.86207  0.62807  1.0000
  C   C204      1.0  0.04446  0.86184  0.62422  1.0000
  C   C205      1.0  0.16265  0.03599  0.62769  1.0000
  C   C206      1.0  0.16258  0.96495  0.62518  1.0000
  C   C207      1.0  0.10813  0.94428  0.62325  1.0000
  C   C208      1.0  0.10820  0.05698  0.62696  1.0000
  C   C209      1.0  0.79263  0.92886  0.63108  1.0000
  C   C210      1.0  0.74600  0.96540  0.63162  1.0000
  C   C211      1.0  0.74598  0.03657  0.63120  1.0000
  C   C212      1.0  0.79262  0.07310  0.63015  1.0000
  C   C213      1.0  0.94527  0.27036  0.62831  1.0000
  C   C214      1.0  0.97350  0.33072  0.62861  1.0000
  C   C215      1.0  0.02849  0.33071  0.62867  1.0000
  C   C216      1.0  0.05675  0.27036  0.62858  1.0000
  C   C217      1.0  0.20934  0.07230  0.63026  1.0000
  C   C218      1.0  0.25589  0.03564  0.63064  1.0000
  C   C219      1.0  0.25580  0.96446  0.62852  1.0000
  C   C220      1.0  0.20912  0.92820  0.62568  1.0000
  C   C221      1.0  0.05655  0.73107  0.62600  1.0000
  C   C222      1.0  0.02834  0.67078  0.62830  1.0000
  C   C223      1.0  0.97336  0.67089  0.63080  1.0000
  C   C224      1.0  0.94520  0.73129  0.63108  1.0000
  N   N1        1.0  0.00096  0.09810  0.62671  1.0000
  N   N2        1.0  0.92575  0.00098  0.62704  1.0000
  N   N3        1.0  0.90778  0.12151  0.62781  1.0000
  N   N4        1.0  0.00093  0.90349  0.62545  1.0000
  N   N5        1.0  0.90776  0.88041  0.62956  1.0000
  N   N6        1.0  0.07609  0.00073  0.62480  1.0000
  N   N7        1.0  0.09416  0.12129  0.62815  1.0000
  N   N8        1.0  0.09405  0.88003  0.62241  1.0000
  H   H1        1.0  0.09914  0.26990  0.62795  1.0000
  H   H2        1.0  0.90289  0.26983  0.62751  1.0000
  H   H3        1.0  0.79302  0.12792  0.62922  1.0000
  H   H4        1.0  0.79303  0.87401  0.63093  1.0000
  H   H5        1.0  0.90283  0.73186  0.63238  1.0000
  H   H6        1.0  0.09887  0.73153  0.62323  1.0000
  H   H7        1.0  0.20863  0.87344  0.62321  1.0000
  H   H8        1.0  0.20903  0.12713  0.63144  1.0000
  H   H9        1.0  0.29281  0.93760  0.62819  1.0000
  H   H10       1.0  0.29296  0.06229  0.63201  1.0000
  H   H11       1.0  0.04898  0.62279  0.62730  1.0000
  H   H12       1.0  0.95262  0.62300  0.63178  1.0000
  H   H13       1.0  0.70896  0.93861  0.63176  1.0000
  H   H14       1.0  0.70893  0.06331  0.63103  1.0000
  H   H15       1.0  0.95279  0.37864  0.62803  1.0000
  H   H16       1.0  0.04919  0.37864  0.62804  1.0000
  Co  Co1       1.0  0.00098  0.00094  0.62715  1.0000
  O   O1        1.0  0.04149  0.84080  0.78746  1.0000
  O   O2        1.0  0.99630  0.99686  0.73058  1.0000
  C   C225      1.0  0.04645  0.90510  0.76460  1.0000
  C   C226      1.0  0.09852  0.91852  0.75448  1.0000
  C   C227      1.0  0.12684  0.86038  0.77102  1.0000
  C   C228      1.0  0.09050  0.81492  0.79040  1.0000
  C   C229      1.0  0.99884  0.94234  0.75586  1.0000
  H   H17       1.0  0.11370  0.96469  0.73675  1.0000
  H   H18       1.0  0.16856  0.85261  0.76860  1.0000
  H   H19       1.0  0.09344  0.76411  0.80663  1.0000
  H   H20       1.0  0.96329  0.91809  0.77323  1.0000
