data_image0
_chemical_formula_structural       C82O4H10
_chemical_formula_sum              "C82 O4 H10"
_cell_length_a       14.6973
_cell_length_b       14.6973
_cell_length_c       12.78
_cell_angle_alpha    90
_cell_angle_beta     90
_cell_angle_gamma    90

_space_group_name_H-M_alt    "P 1"
_space_group_IT_number       1

loop_
  _space_group_symop_operation_xyz
  'x, y, z'

loop_
  _atom_site_type_symbol
  _atom_site_label
  _atom_site_symmetry_multiplicity
  _atom_site_fract_x
  _atom_site_fract_y
  _atom_site_fract_z
  _atom_site_occupancy
  C   C1        1.0  0.66767  0.47750  0.02813  1.0000
  C   C2        1.0  0.64688  0.56076  0.30521  1.0000
  C   C3        1.0  0.64688  0.56076  0.19477  1.0000
  C   C4        1.0  0.58721  0.62233  0.13854  1.0000
  C   C5        1.0  0.58716  0.62228  0.02815  1.0000
  C   C6        1.0  0.50467  0.64571  0.30517  1.0000
  C   C7        1.0  0.50470  0.64568  0.19478  1.0000
  C   C8        1.0  0.42155  0.62470  0.13858  1.0000
  C   C9        1.0  0.42153  0.62471  0.02818  1.0000
  C   C10       1.0  0.35996  0.56502  0.30523  1.0000
  C   C11       1.0  0.35996  0.56502  0.19478  1.0000
  C   C12       1.0  0.33647  0.48256  0.13858  1.0000
  C   C13       1.0  0.33644  0.48253  0.02812  1.0000
  C   C14       1.0  0.35727  0.39937  0.30522  1.0000
  C   C15       1.0  0.35729  0.39938  0.19478  1.0000
  C   C16       1.0  0.41701  0.33789  0.13854  1.0000
  C   C17       1.0  0.41701  0.33785  0.02811  1.0000
  C   C18       1.0  0.49946  0.31449  0.30524  1.0000
  C   C19       1.0  0.49948  0.31454  0.19477  1.0000
  C   C20       1.0  0.58260  0.33547  0.13856  1.0000
  C   C21       1.0  0.58264  0.33537  0.02811  1.0000
  C   C22       1.0  0.64411  0.39514  0.30521  1.0000
  C   C23       1.0  0.64412  0.39515  0.19480  1.0000
  C   C24       1.0  0.66766  0.47757  0.13857  1.0000
  C   C25       1.0  0.66760  0.47756  0.36142  1.0000
  C   C26       1.0  0.64675  0.56057  0.63853  1.0000
  C   C27       1.0  0.64671  0.56065  0.52809  1.0000
  C   C28       1.0  0.58721  0.62239  0.47183  1.0000
  C   C29       1.0  0.58720  0.62237  0.36142  1.0000
  C   C30       1.0  0.50471  0.64582  0.63852  1.0000
  C   C31       1.0  0.50467  0.64593  0.52807  1.0000
  C   C32       1.0  0.42153  0.62475  0.47181  1.0000
  C   C33       1.0  0.42155  0.62470  0.36143  1.0000
  C   C34       1.0  0.36002  0.56500  0.63854  1.0000
  C   C35       1.0  0.36006  0.56501  0.52806  1.0000
  C   C36       1.0  0.33648  0.48254  0.47188  1.0000
  C   C37       1.0  0.33647  0.48255  0.36143  1.0000
  C   C38       1.0  0.35728  0.39934  0.63857  1.0000
  C   C39       1.0  0.35726  0.39935  0.52813  1.0000
  C   C40       1.0  0.41695  0.33778  0.47192  1.0000
  C   C41       1.0  0.41697  0.33783  0.36147  1.0000
  C   C42       1.0  0.49949  0.31429  0.63857  1.0000
  C   C43       1.0  0.49946  0.31433  0.52813  1.0000
  C   C44       1.0  0.58261  0.33534  0.47191  1.0000
  C   C45       1.0  0.58258  0.33544  0.36146  1.0000
  C   C46       1.0  0.64419  0.39498  0.63852  1.0000
  C   C47       1.0  0.64414  0.39503  0.52811  1.0000
  C   C48       1.0  0.66755  0.47750  0.47186  1.0000
  C   C49       1.0  0.66762  0.47744  0.69476  1.0000
  C   C50       1.0  0.64681  0.56065  0.97192  1.0000
  C   C51       1.0  0.64683  0.56061  0.86147  1.0000
  C   C52       1.0  0.58717  0.62219  0.80525  1.0000
  C   C53       1.0  0.58719  0.62217  0.69483  1.0000
  C   C54       1.0  0.50468  0.64561  0.97195  1.0000
  C   C55       1.0  0.50470  0.64561  0.86152  1.0000
  C   C56       1.0  0.42153  0.62473  0.80524  1.0000
  C   C57       1.0  0.42153  0.62472  0.69481  1.0000
  C   C58       1.0  0.35993  0.56502  0.97194  1.0000
  C   C59       1.0  0.35991  0.56501  0.86149  1.0000
  C   C60       1.0  0.33652  0.48254  0.80525  1.0000
  C   C61       1.0  0.33653  0.48254  0.69478  1.0000
  C   C62       1.0  0.35729  0.39936  0.97188  1.0000
  C   C63       1.0  0.35732  0.39934  0.86143  1.0000
  C   C64       1.0  0.41702  0.33778  0.80522  1.0000
  C   C65       1.0  0.41701  0.33777  0.69478  1.0000
  C   C66       1.0  0.49950  0.31438  0.97191  1.0000
  C   C67       1.0  0.49950  0.31429  0.86143  1.0000
  C   C68       1.0  0.58266  0.33528  0.80522  1.0000
  C   C69       1.0  0.58265  0.33528  0.69476  1.0000
  C   C70       1.0  0.64423  0.39503  0.97190  1.0000
  C   C71       1.0  0.64423  0.39498  0.86147  1.0000
  C   C72       1.0  0.66764  0.47746  0.80521  1.0000
  C   C73       1.0  0.51547  0.87801  0.76405  1.0000
  C   C74       1.0  0.43533  0.87942  0.68173  1.0000
  C   C75       1.0  0.58223  0.95363  0.74919  1.0000
  C   C76       1.0  0.37306  0.95892  0.69542  1.0000
  C   C77       1.0  0.58549  0.04294  0.78044  1.0000
  C   C78       1.0  0.37453  0.04808  0.66365  1.0000
  C   C79       1.0  0.66760  0.08070  0.73686  1.0000
  C   C80       1.0  0.29524  0.09064  0.70834  1.0000
  C   C81       1.0  0.70868  0.01191  0.68192  1.0000
  C   C82       1.0  0.25108  0.02469  0.76464  1.0000
  O   O1        1.0  0.48034  0.88287  0.86905  1.0000
  O   O2        1.0  0.47014  0.88027  0.57668  1.0000
  O   O3        1.0  0.65784  0.93312  0.68858  1.0000
  O   O4        1.0  0.29724  0.94308  0.75759  1.0000
  H   H1        1.0  0.55211  0.81298  0.75140  1.0000
  H   H2        1.0  0.39503  0.81686  0.69649  1.0000
  H   H3        1.0  0.53533  0.07693  0.82889  1.0000
  H   H4        1.0  0.42601  0.07903  0.61435  1.0000
  H   H5        1.0  0.42380  0.84830  0.87105  1.0000
  H   H6        1.0  0.51614  0.83265  0.57185  1.0000
  H   H7        1.0  0.69253  0.14985  0.74554  1.0000
  H   H8        1.0  0.27418  0.16106  0.69967  1.0000
  H   H9        1.0  0.77074  0.00697  0.63636  1.0000
  H   H10       1.0  0.18948  0.02349  0.81130  1.0000
