data_image0
_chemical_formula_structural       C72O2C5H4
_chemical_formula_sum              "C77 O2 H4"
_cell_length_a       14.6973
_cell_length_b       14.6973
_cell_length_c       12.78
_cell_angle_alpha    90
_cell_angle_beta     90
_cell_angle_gamma    90

_space_group_name_H-M_alt    "P 1"
_space_group_IT_number       1

loop_
  _space_group_symop_operation_xyz
  'x, y, z'

loop_
  _atom_site_type_symbol
  _atom_site_label
  _atom_site_symmetry_multiplicity
  _atom_site_fract_x
  _atom_site_fract_y
  _atom_site_fract_z
  _atom_site_occupancy
  C   C1        1.0  0.66770  0.49027  0.02813  1.0000
  C   C2        1.0  0.64571  0.57317  0.30516  1.0000
  C   C3        1.0  0.64568  0.57318  0.19475  1.0000
  C   C4        1.0  0.58495  0.63372  0.13849  1.0000
  C   C5        1.0  0.58497  0.63372  0.02808  1.0000
  C   C6        1.0  0.50212  0.65569  0.30522  1.0000
  C   C7        1.0  0.50211  0.65572  0.19473  1.0000
  C   C8        1.0  0.41927  0.63375  0.13851  1.0000
  C   C9        1.0  0.41929  0.63369  0.02803  1.0000
  C   C10       1.0  0.35827  0.57345  0.30522  1.0000
  C   C11       1.0  0.35826  0.57349  0.19475  1.0000
  C   C12       1.0  0.33566  0.49074  0.13854  1.0000
  C   C13       1.0  0.33561  0.49071  0.02816  1.0000
  C   C14       1.0  0.35767  0.40783  0.30517  1.0000
  C   C15       1.0  0.35770  0.40784  0.19477  1.0000
  C   C16       1.0  0.41833  0.34722  0.13854  1.0000
  C   C17       1.0  0.41834  0.34725  0.02814  1.0000
  C   C18       1.0  0.50117  0.32518  0.30520  1.0000
  C   C19       1.0  0.50117  0.32516  0.19473  1.0000
  C   C20       1.0  0.58397  0.34728  0.13855  1.0000
  C   C21       1.0  0.58397  0.34732  0.02809  1.0000
  C   C22       1.0  0.64492  0.40757  0.30518  1.0000
  C   C23       1.0  0.64490  0.40757  0.19474  1.0000
  C   C24       1.0  0.66764  0.49025  0.13854  1.0000
  C   C25       1.0  0.66767  0.49025  0.36138  1.0000
  C   C26       1.0  0.64595  0.57312  0.63846  1.0000
  C   C27       1.0  0.64586  0.57316  0.52804  1.0000
  C   C28       1.0  0.58503  0.63367  0.47182  1.0000
  C   C29       1.0  0.58499  0.63371  0.36140  1.0000
  C   C30       1.0  0.50227  0.65509  0.63854  1.0000
  C   C31       1.0  0.50218  0.65542  0.52808  1.0000
  C   C32       1.0  0.41936  0.63349  0.47190  1.0000
  C   C33       1.0  0.41932  0.63363  0.36144  1.0000
  C   C34       1.0  0.35838  0.57306  0.63851  1.0000
  C   C35       1.0  0.35832  0.57326  0.52807  1.0000
  C   C36       1.0  0.33558  0.49060  0.47180  1.0000
  C   C37       1.0  0.33560  0.49070  0.36141  1.0000
  C   C38       1.0  0.35751  0.40754  0.63849  1.0000
  C   C39       1.0  0.35758  0.40764  0.52808  1.0000
  C   C40       1.0  0.41835  0.34720  0.47184  1.0000
  C   C41       1.0  0.41834  0.34724  0.36142  1.0000
  C   C42       1.0  0.50121  0.32522  0.63855  1.0000
  C   C43       1.0  0.50119  0.32519  0.52806  1.0000
  C   C44       1.0  0.58399  0.34729  0.47186  1.0000
  C   C45       1.0  0.58398  0.34728  0.36138  1.0000
  C   C46       1.0  0.64501  0.40755  0.63851  1.0000
  C   C47       1.0  0.64497  0.40755  0.52804  1.0000
  C   C48       1.0  0.66772  0.49023  0.47181  1.0000
  C   C49       1.0  0.66792  0.49020  0.69473  1.0000
  C   C50       1.0  0.64577  0.57319  0.97187  1.0000
  C   C51       1.0  0.64587  0.57319  0.86142  1.0000
  C   C52       1.0  0.58513  0.63365  0.80512  1.0000
  C   C53       1.0  0.58518  0.63353  0.69475  1.0000
  C   C54       1.0  0.50216  0.65564  0.97181  1.0000
  C   C55       1.0  0.50224  0.65548  0.86131  1.0000
  C   C56       1.0  0.41963  0.63296  0.80513  1.0000
  C   C57       1.0  0.41968  0.63274  0.69473  1.0000
  C   C58       1.0  0.35827  0.57339  0.97186  1.0000
  C   C59       1.0  0.35833  0.57319  0.86138  1.0000
  C   C60       1.0  0.33548  0.49045  0.80516  1.0000
  C   C61       1.0  0.33538  0.49040  0.69477  1.0000
  C   C62       1.0  0.35763  0.40778  0.97192  1.0000
  C   C63       1.0  0.35757  0.40763  0.86149  1.0000
  C   C64       1.0  0.41830  0.34712  0.80520  1.0000
  C   C65       1.0  0.41830  0.34707  0.69478  1.0000
  C   C66       1.0  0.50117  0.32521  0.97190  1.0000
  C   C67       1.0  0.50119  0.32522  0.86140  1.0000
  C   C68       1.0  0.58397  0.34736  0.80522  1.0000
  C   C69       1.0  0.58400  0.34736  0.69473  1.0000
  C   C70       1.0  0.64491  0.40760  0.97191  1.0000
  C   C71       1.0  0.64492  0.40761  0.86143  1.0000
  C   C72       1.0  0.66785  0.49025  0.80517  1.0000
  O   O1        1.0  0.34408  0.83562  0.60879  1.0000
  O   O2        1.0  0.55166  0.90005  0.73590  1.0000
  C   C73       1.0  0.39959  0.85936  0.69293  1.0000
  C   C74       1.0  0.35063  0.85263  0.78513  1.0000
  C   C75       1.0  0.26127  0.82341  0.75735  1.0000
  C   C76       1.0  0.26106  0.81395  0.64998  1.0000
  C   C77       1.0  0.49419  0.88105  0.66892  1.0000
  H   H1        1.0  0.37761  0.86599  0.86267  1.0000
  H   H2        1.0  0.20440  0.81019  0.80947  1.0000
  H   H3        1.0  0.20957  0.79315  0.59399  1.0000
  H   H4        1.0  0.51122  0.87830  0.58371  1.0000
