data_image0
_chemical_formula_structural       C72O2C5H5
_chemical_formula_sum              "C77 O2 H5"
_cell_length_a       14.6973
_cell_length_b       14.6973
_cell_length_c       12.78
_cell_angle_alpha    90
_cell_angle_beta     90
_cell_angle_gamma    90

_space_group_name_H-M_alt    "P 1"
_space_group_IT_number       1

loop_
  _space_group_symop_operation_xyz
  'x, y, z'

loop_
  _atom_site_type_symbol
  _atom_site_label
  _atom_site_symmetry_multiplicity
  _atom_site_fract_x
  _atom_site_fract_y
  _atom_site_fract_z
  _atom_site_occupancy
  C   C1        1.0  0.66446  0.49459  0.02795  1.0000
  C   C2        1.0  0.64175  0.57797  0.30531  1.0000
  C   C3        1.0  0.64193  0.57750  0.19462  1.0000
  C   C4        1.0  0.58190  0.63845  0.13796  1.0000
  C   C5        1.0  0.58198  0.63856  0.02789  1.0000
  C   C6        1.0  0.49848  0.65994  0.30436  1.0000
  C   C7        1.0  0.49851  0.65963  0.19412  1.0000
  C   C8        1.0  0.41643  0.63414  0.13798  1.0000
  C   C9        1.0  0.41651  0.63413  0.02771  1.0000
  C   C10       1.0  0.35905  0.57130  0.30538  1.0000
  C   C11       1.0  0.35890  0.57092  0.19455  1.0000
  C   C12       1.0  0.33841  0.48768  0.13866  1.0000
  C   C13       1.0  0.33904  0.48732  0.02796  1.0000
  C   C14       1.0  0.36096  0.40535  0.30582  1.0000
  C   C15       1.0  0.36089  0.40517  0.19535  1.0000
  C   C16       1.0  0.42170  0.34449  0.13906  1.0000
  C   C17       1.0  0.42170  0.34391  0.02872  1.0000
  C   C18       1.0  0.50496  0.32419  0.30591  1.0000
  C   C19       1.0  0.50498  0.32420  0.19534  1.0000
  C   C20       1.0  0.58712  0.34865  0.13909  1.0000
  C   C21       1.0  0.58713  0.34810  0.02864  1.0000
  C   C22       1.0  0.64508  0.41203  0.30590  1.0000
  C   C23       1.0  0.64524  0.41179  0.19537  1.0000
  C   C24       1.0  0.66503  0.49494  0.13872  1.0000
  C   C25       1.0  0.66369  0.49565  0.36212  1.0000
  C   C26       1.0  0.63812  0.57715  0.63967  1.0000
  C   C27       1.0  0.64008  0.57807  0.52908  1.0000
  C   C28       1.0  0.58083  0.64062  0.47187  1.0000
  C   C29       1.0  0.58124  0.63899  0.36092  1.0000
  C   C30       1.0  0.49798  0.68163  0.64135  1.0000
  C   C31       1.0  0.49851  0.66271  0.52604  1.0000
  C   C32       1.0  0.41773  0.63581  0.47192  1.0000
  C   C33       1.0  0.41711  0.63450  0.36092  1.0000
  C   C34       1.0  0.36405  0.56980  0.63989  1.0000
  C   C35       1.0  0.36159  0.57095  0.52908  1.0000
  C   C36       1.0  0.34057  0.48853  0.47305  1.0000
  C   C37       1.0  0.33961  0.48832  0.36210  1.0000
  C   C38       1.0  0.36174  0.40390  0.63898  1.0000
  C   C39       1.0  0.36173  0.40480  0.52886  1.0000
  C   C40       1.0  0.42186  0.34423  0.47239  1.0000
  C   C41       1.0  0.42184  0.34462  0.36206  1.0000
  C   C42       1.0  0.50499  0.32197  0.63914  1.0000
  C   C43       1.0  0.50498  0.32276  0.52872  1.0000
  C   C44       1.0  0.58683  0.34859  0.47243  1.0000
  C   C45       1.0  0.58689  0.34883  0.36205  1.0000
  C   C46       1.0  0.64412  0.41102  0.63894  1.0000
  C   C47       1.0  0.64424  0.41178  0.52879  1.0000
  C   C48       1.0  0.66292  0.49595  0.47303  1.0000
  C   C49       1.0  0.66204  0.49451  0.69515  1.0000
  C   C50       1.0  0.64143  0.57687  0.97171  1.0000
  C   C51       1.0  0.64065  0.57643  0.86117  1.0000
  C   C52       1.0  0.58222  0.63922  0.80520  1.0000
  C   C53       1.0  0.58251  0.64098  0.69595  1.0000
  C   C54       1.0  0.49858  0.66114  0.97131  1.0000
  C   C55       1.0  0.49865  0.66205  0.86254  1.0000
  C   C56       1.0  0.41708  0.63395  0.80515  1.0000
  C   C57       1.0  0.41765  0.63445  0.69606  1.0000
  C   C58       1.0  0.35972  0.57017  0.97161  1.0000
  C   C59       1.0  0.36076  0.56953  0.86102  1.0000
  C   C60       1.0  0.33980  0.48662  0.80532  1.0000
  C   C61       1.0  0.34127  0.48682  0.69529  1.0000
  C   C62       1.0  0.36077  0.40408  0.97201  1.0000
  C   C63       1.0  0.36098  0.40357  0.86187  1.0000
  C   C64       1.0  0.42163  0.34278  0.80584  1.0000
  C   C65       1.0  0.42173  0.34253  0.69548  1.0000
  C   C66       1.0  0.50502  0.32309  0.97256  1.0000
  C   C67       1.0  0.50501  0.32236  0.86227  1.0000
  C   C68       1.0  0.58705  0.34729  0.80576  1.0000
  C   C69       1.0  0.58692  0.34711  0.69534  1.0000
  C   C70       1.0  0.64540  0.41077  0.97194  1.0000
  C   C71       1.0  0.64511  0.41042  0.86174  1.0000
  C   C72       1.0  0.66347  0.49415  0.80530  1.0000
  O   O1        1.0  0.33345  0.81165  0.60604  1.0000
  O   O2        1.0  0.55226  0.82900  0.73324  1.0000
  C   C73       1.0  0.39930  0.82416  0.68191  1.0000
  C   C74       1.0  0.36049  0.85456  0.77315  1.0000
  C   C75       1.0  0.26434  0.86166  0.75326  1.0000
  C   C76       1.0  0.25130  0.83477  0.65166  1.0000
  C   C77       1.0  0.49355  0.79454  0.65429  1.0000
  H   H1        1.0  0.39666  0.86879  0.84528  1.0000
  H   H2        1.0  0.21196  0.88377  0.80758  1.0000
  H   H3        1.0  0.19223  0.82880  0.60131  1.0000
  H   H4        1.0  0.51313  0.82131  0.57671  1.0000
  H   H5        1.0  0.60831  0.79345  0.73183  1.0000
